*SPEF "ieee 1481-1999"
*DESIGN "wrapped_cpr"
*DATE "11:11:11 Fri 11 11, 1111"
*VENDOR "OpenRCX"
*PROGRAM "Parallel Extraction"
*VERSION "1.0"
*DESIGN_FLOW "NAME_SCOPE LOCAL" "PIN_CAP NONE"
*DIVIDER /
*DELIMITER :
*BUS_DELIMITER []
*T_UNIT 1 NS
*C_UNIT 1 PF
*R_UNIT 1 OHM
*L_UNIT 1 HENRY

*NAME_MAP
*1 active
*2 io_in[0]
*3 io_in[10]
*4 io_in[11]
*5 io_in[12]
*6 io_in[13]
*7 io_in[14]
*8 io_in[15]
*9 io_in[16]
*10 io_in[17]
*11 io_in[18]
*12 io_in[19]
*13 io_in[1]
*14 io_in[20]
*15 io_in[21]
*16 io_in[22]
*17 io_in[23]
*18 io_in[24]
*19 io_in[25]
*20 io_in[26]
*21 io_in[27]
*22 io_in[28]
*23 io_in[29]
*24 io_in[2]
*25 io_in[30]
*26 io_in[31]
*27 io_in[32]
*28 io_in[33]
*29 io_in[34]
*30 io_in[35]
*31 io_in[36]
*32 io_in[37]
*33 io_in[3]
*34 io_in[4]
*35 io_in[5]
*36 io_in[6]
*37 io_in[7]
*38 io_in[8]
*39 io_in[9]
*40 io_oeb[0]
*41 io_oeb[10]
*42 io_oeb[11]
*43 io_oeb[12]
*44 io_oeb[13]
*45 io_oeb[14]
*46 io_oeb[15]
*47 io_oeb[16]
*48 io_oeb[17]
*49 io_oeb[18]
*50 io_oeb[19]
*51 io_oeb[1]
*52 io_oeb[20]
*53 io_oeb[21]
*54 io_oeb[22]
*55 io_oeb[23]
*56 io_oeb[24]
*57 io_oeb[25]
*58 io_oeb[26]
*59 io_oeb[27]
*60 io_oeb[28]
*61 io_oeb[29]
*62 io_oeb[2]
*63 io_oeb[30]
*64 io_oeb[31]
*65 io_oeb[32]
*66 io_oeb[33]
*67 io_oeb[34]
*68 io_oeb[35]
*69 io_oeb[36]
*70 io_oeb[37]
*71 io_oeb[3]
*72 io_oeb[4]
*73 io_oeb[5]
*74 io_oeb[6]
*75 io_oeb[7]
*76 io_oeb[8]
*77 io_oeb[9]
*78 io_out[0]
*79 io_out[10]
*80 io_out[11]
*81 io_out[12]
*82 io_out[13]
*83 io_out[14]
*84 io_out[15]
*85 io_out[16]
*86 io_out[17]
*87 io_out[18]
*88 io_out[19]
*89 io_out[1]
*90 io_out[20]
*91 io_out[21]
*92 io_out[22]
*93 io_out[23]
*94 io_out[24]
*95 io_out[25]
*96 io_out[26]
*97 io_out[27]
*98 io_out[28]
*99 io_out[29]
*100 io_out[2]
*101 io_out[30]
*102 io_out[31]
*103 io_out[32]
*104 io_out[33]
*105 io_out[34]
*106 io_out[35]
*107 io_out[36]
*108 io_out[37]
*109 io_out[3]
*110 io_out[4]
*111 io_out[5]
*112 io_out[6]
*113 io_out[7]
*114 io_out[8]
*115 io_out[9]
*116 la1_data_in[0]
*117 la1_data_in[10]
*118 la1_data_in[11]
*119 la1_data_in[12]
*120 la1_data_in[13]
*121 la1_data_in[14]
*122 la1_data_in[15]
*123 la1_data_in[16]
*124 la1_data_in[17]
*125 la1_data_in[18]
*126 la1_data_in[19]
*127 la1_data_in[1]
*128 la1_data_in[20]
*129 la1_data_in[21]
*130 la1_data_in[22]
*131 la1_data_in[23]
*132 la1_data_in[24]
*133 la1_data_in[25]
*134 la1_data_in[26]
*135 la1_data_in[27]
*136 la1_data_in[28]
*137 la1_data_in[29]
*138 la1_data_in[2]
*139 la1_data_in[30]
*140 la1_data_in[31]
*141 la1_data_in[3]
*142 la1_data_in[4]
*143 la1_data_in[5]
*144 la1_data_in[6]
*145 la1_data_in[7]
*146 la1_data_in[8]
*147 la1_data_in[9]
*148 la1_data_out[0]
*149 la1_data_out[10]
*150 la1_data_out[11]
*151 la1_data_out[12]
*152 la1_data_out[13]
*153 la1_data_out[14]
*154 la1_data_out[15]
*155 la1_data_out[16]
*156 la1_data_out[17]
*157 la1_data_out[18]
*158 la1_data_out[19]
*159 la1_data_out[1]
*160 la1_data_out[20]
*161 la1_data_out[21]
*162 la1_data_out[22]
*163 la1_data_out[23]
*164 la1_data_out[24]
*165 la1_data_out[25]
*166 la1_data_out[26]
*167 la1_data_out[27]
*168 la1_data_out[28]
*169 la1_data_out[29]
*170 la1_data_out[2]
*171 la1_data_out[30]
*172 la1_data_out[31]
*173 la1_data_out[3]
*174 la1_data_out[4]
*175 la1_data_out[5]
*176 la1_data_out[6]
*177 la1_data_out[7]
*178 la1_data_out[8]
*179 la1_data_out[9]
*180 la1_oenb[0]
*181 la1_oenb[10]
*182 la1_oenb[11]
*183 la1_oenb[12]
*184 la1_oenb[13]
*185 la1_oenb[14]
*186 la1_oenb[15]
*187 la1_oenb[16]
*188 la1_oenb[17]
*189 la1_oenb[18]
*190 la1_oenb[19]
*191 la1_oenb[1]
*192 la1_oenb[20]
*193 la1_oenb[21]
*194 la1_oenb[22]
*195 la1_oenb[23]
*196 la1_oenb[24]
*197 la1_oenb[25]
*198 la1_oenb[26]
*199 la1_oenb[27]
*200 la1_oenb[28]
*201 la1_oenb[29]
*202 la1_oenb[2]
*203 la1_oenb[30]
*204 la1_oenb[31]
*205 la1_oenb[3]
*206 la1_oenb[4]
*207 la1_oenb[5]
*208 la1_oenb[6]
*209 la1_oenb[7]
*210 la1_oenb[8]
*211 la1_oenb[9]
*214 wb_clk_i
*215 _0000_
*216 _0001_
*217 _0002_
*218 _0003_
*219 _0004_
*220 _0005_
*221 _0006_
*222 _0007_
*223 _0008_
*224 _0009_
*225 _0010_
*226 _0011_
*227 _0012_
*228 _0013_
*229 _0014_
*230 _0015_
*231 _0016_
*232 _0017_
*233 _0018_
*234 _0019_
*235 _0020_
*236 _0021_
*237 _0022_
*238 _0023_
*239 _0024_
*240 _0025_
*241 _0026_
*242 _0027_
*243 _0028_
*244 _0029_
*245 _0030_
*246 _0031_
*247 _0032_
*248 _0033_
*249 _0034_
*250 _0035_
*251 _0036_
*252 _0037_
*253 _0038_
*254 _0039_
*255 _0040_
*256 _0041_
*257 _0042_
*258 _0043_
*259 _0044_
*260 _0045_
*261 _0046_
*262 _0047_
*263 _0048_
*264 _0049_
*265 _0050_
*266 _0051_
*267 _0052_
*268 _0053_
*269 _0054_
*270 _0055_
*271 _0056_
*272 _0057_
*273 _0058_
*274 _0059_
*275 _0060_
*276 _0061_
*277 _0062_
*278 _0063_
*279 _0064_
*280 _0065_
*281 _0066_
*282 _0067_
*283 _0068_
*284 _0069_
*285 _0070_
*286 _0071_
*287 _0072_
*288 _0073_
*289 _0074_
*290 _0075_
*291 _0076_
*292 _0077_
*293 _0078_
*294 _0079_
*295 _0080_
*296 _0081_
*297 _0082_
*298 _0083_
*299 _0084_
*300 _0085_
*301 _0086_
*302 _0087_
*303 _0088_
*304 _0089_
*305 _0090_
*306 _0091_
*307 _0092_
*308 _0093_
*309 _0094_
*310 _0095_
*311 _0096_
*312 _0097_
*313 _0098_
*314 _0099_
*315 _0100_
*316 _0101_
*317 _0102_
*318 _0103_
*319 _0104_
*320 _0105_
*321 _0106_
*322 _0107_
*323 _0108_
*324 _0109_
*325 _0110_
*326 _0111_
*327 _0112_
*328 _0113_
*329 _0114_
*330 _0115_
*331 _0116_
*332 _0117_
*333 _0118_
*334 _0119_
*335 _0120_
*336 _0121_
*337 _0122_
*338 _0123_
*339 _0124_
*340 _0125_
*341 _0126_
*342 _0127_
*343 _0128_
*344 _0129_
*345 _0130_
*346 _0131_
*347 _0132_
*348 _0133_
*349 _0134_
*350 _0135_
*351 _0136_
*352 _0137_
*353 _0138_
*354 _0139_
*355 _0140_
*356 _0141_
*357 _0142_
*358 _0143_
*359 _0144_
*360 _0145_
*361 _0146_
*362 _0147_
*363 _0148_
*364 _0149_
*365 _0150_
*366 _0151_
*367 _0152_
*368 _0153_
*369 _0154_
*370 _0155_
*371 _0156_
*372 _0157_
*373 _0158_
*374 _0159_
*375 _0160_
*376 _0161_
*377 _0162_
*378 _0163_
*379 _0164_
*380 _0165_
*381 _0166_
*382 _0167_
*383 _0168_
*384 _0169_
*385 _0170_
*386 _0171_
*387 _0172_
*388 _0173_
*389 _0174_
*390 _0175_
*391 _0176_
*392 _0177_
*393 _0178_
*394 _0179_
*395 _0180_
*396 _0181_
*397 _0182_
*398 _0183_
*399 _0184_
*400 _0185_
*401 _0186_
*402 _0187_
*403 _0188_
*404 _0189_
*405 _0190_
*406 _0191_
*407 _0192_
*408 _0193_
*409 _0194_
*410 _0195_
*411 _0196_
*412 _0197_
*413 _0198_
*414 _0199_
*415 _0200_
*416 _0201_
*417 _0202_
*418 _0203_
*419 _0204_
*420 _0205_
*421 _0206_
*422 _0207_
*423 _0208_
*424 _0209_
*425 _0210_
*426 _0211_
*427 _0212_
*428 _0213_
*429 _0214_
*430 _0215_
*431 _0216_
*432 _0217_
*433 _0218_
*434 _0219_
*435 _0220_
*436 _0221_
*437 _0222_
*438 _0223_
*439 _0224_
*440 _0225_
*441 _0226_
*442 _0227_
*443 _0228_
*444 _0229_
*445 _0230_
*446 _0231_
*447 _0232_
*448 _0233_
*449 _0234_
*450 _0235_
*451 _0236_
*452 _0237_
*453 _0238_
*454 _0239_
*455 _0240_
*456 _0241_
*457 _0242_
*458 _0243_
*459 _0244_
*460 _0245_
*461 _0246_
*462 _0247_
*463 _0248_
*464 _0249_
*465 _0250_
*466 _0251_
*467 _0252_
*468 _0253_
*469 _0254_
*470 _0255_
*471 _0256_
*472 _0257_
*473 _0258_
*474 _0259_
*475 _0260_
*476 _0261_
*477 _0262_
*478 _0263_
*479 _0264_
*480 _0265_
*481 _0266_
*482 _0267_
*483 _0268_
*484 _0269_
*485 _0270_
*486 _0271_
*487 _0272_
*488 _0273_
*489 _0274_
*490 _0275_
*491 _0276_
*492 _0277_
*493 _0278_
*494 _0279_
*495 _0280_
*496 _0281_
*497 _0282_
*498 _0283_
*499 _0284_
*500 _0285_
*501 _0286_
*502 _0287_
*503 _0288_
*504 _0289_
*505 _0290_
*506 _0291_
*507 _0292_
*508 _0293_
*509 _0294_
*510 _0295_
*511 _0296_
*512 _0297_
*513 _0298_
*514 _0299_
*515 _0300_
*516 _0301_
*517 _0302_
*518 _0303_
*519 _0304_
*520 _0305_
*521 _0306_
*522 _0307_
*523 _0308_
*524 _0309_
*525 _0310_
*526 _0311_
*527 _0312_
*528 _0313_
*529 _0314_
*530 _0315_
*531 _0316_
*532 _0317_
*533 _0318_
*534 _0319_
*535 _0320_
*536 _0321_
*537 _0322_
*538 _0323_
*539 _0324_
*540 _0325_
*541 _0326_
*542 _0327_
*543 _0328_
*544 _0329_
*545 _0330_
*546 _0331_
*547 _0332_
*548 _0333_
*549 _0334_
*550 _0335_
*551 _0336_
*552 _0337_
*553 _0338_
*554 _0339_
*555 _0340_
*556 _0341_
*557 _0342_
*558 _0343_
*559 _0344_
*560 _0345_
*561 _0346_
*562 _0347_
*563 _0348_
*564 _0349_
*565 _0350_
*566 _0351_
*567 _0352_
*568 _0353_
*569 _0354_
*570 _0355_
*571 _0356_
*572 _0357_
*573 _0358_
*574 _0359_
*575 _0360_
*576 _0361_
*577 _0362_
*578 _0363_
*579 _0364_
*580 _0365_
*581 _0366_
*582 _0367_
*583 _0368_
*584 _0369_
*585 _0370_
*586 _0371_
*587 _0372_
*588 _0373_
*589 _0374_
*590 _0375_
*591 _0376_
*592 _0377_
*593 _0378_
*594 _0379_
*595 _0380_
*596 _0381_
*597 _0382_
*598 _0383_
*599 _0384_
*600 _0385_
*601 _0386_
*602 _0387_
*603 _0388_
*604 _0389_
*605 _0390_
*606 _0391_
*607 _0392_
*608 _0393_
*609 _0394_
*610 _0395_
*611 _0396_
*612 _0397_
*613 _0398_
*614 _0399_
*615 _0400_
*616 _0401_
*617 _0402_
*618 _0403_
*619 _0404_
*620 _0405_
*621 _0406_
*622 _0407_
*623 _0408_
*624 _0409_
*625 _0410_
*626 _0411_
*627 _0412_
*628 _0413_
*629 _0414_
*630 _0415_
*631 _0416_
*632 _0417_
*633 _0418_
*634 _0419_
*635 _0420_
*636 _0421_
*637 _0422_
*638 _0423_
*639 _0424_
*640 _0425_
*641 _0426_
*642 _0427_
*643 _0428_
*644 _0429_
*645 _0430_
*646 _0431_
*647 _0432_
*648 _0433_
*649 _0434_
*650 _0435_
*651 _0436_
*652 _0437_
*653 _0438_
*654 _0439_
*655 _0440_
*656 _0441_
*657 _0442_
*658 _0443_
*659 _0444_
*660 _0445_
*661 _0446_
*662 _0447_
*663 _0448_
*664 _0449_
*665 _0450_
*666 _0451_
*667 _0452_
*668 _0453_
*669 _0454_
*670 _0455_
*671 _0456_
*672 _0457_
*673 _0458_
*674 _0459_
*675 _0460_
*676 _0461_
*677 _0462_
*678 _0463_
*679 _0464_
*680 _0465_
*681 _0466_
*682 _0467_
*683 _0468_
*684 _0469_
*685 _0470_
*686 _0471_
*687 _0472_
*688 _0473_
*689 _0474_
*690 _0475_
*691 _0476_
*692 _0477_
*693 _0478_
*694 _0479_
*695 _0480_
*696 _0481_
*697 _0482_
*698 _0483_
*699 _0484_
*700 _0485_
*701 _0486_
*702 _0487_
*703 _0488_
*704 _0489_
*705 _0490_
*706 _0491_
*707 _0492_
*708 _0493_
*709 _0494_
*710 _0495_
*711 _0496_
*712 _0497_
*713 _0498_
*714 _0499_
*715 _0500_
*716 _0501_
*717 _0502_
*718 _0503_
*719 _0504_
*720 _0505_
*721 _0506_
*722 _0507_
*723 _0508_
*724 _0509_
*725 _0510_
*726 _0511_
*727 _0512_
*728 _0513_
*729 _0514_
*730 _0515_
*731 _0516_
*732 _0517_
*733 _0518_
*734 _0519_
*735 _0520_
*736 _0521_
*737 _0522_
*738 _0523_
*739 _0524_
*740 _0525_
*741 _0526_
*742 _0527_
*743 _0528_
*744 _0529_
*745 _0530_
*746 _0531_
*747 _0532_
*748 _0533_
*749 _0534_
*750 _0535_
*751 _0536_
*752 _0537_
*753 _0538_
*754 _0539_
*755 _0540_
*756 _0541_
*757 _0542_
*758 _0543_
*759 _0544_
*760 _0545_
*761 _0546_
*762 _0547_
*763 _0548_
*764 _0549_
*765 _0550_
*766 _0551_
*767 _0552_
*768 _0553_
*769 _0554_
*770 _0555_
*771 _0556_
*772 _0557_
*773 _0558_
*774 _0559_
*775 _0560_
*776 _0561_
*777 _0562_
*778 _0563_
*779 _0564_
*780 _0565_
*781 _0566_
*782 _0567_
*783 _0568_
*784 _0569_
*785 _0570_
*786 _0571_
*787 _0572_
*788 _0573_
*789 _0574_
*790 _0575_
*791 _0576_
*792 _0577_
*793 _0578_
*794 _0579_
*795 _0580_
*796 _0581_
*797 _0582_
*798 _0583_
*799 _0584_
*800 _0585_
*801 _0586_
*802 _0587_
*803 _0588_
*804 _0589_
*805 _0590_
*806 _0591_
*807 _0592_
*808 _0593_
*809 _0594_
*810 _0595_
*811 _0596_
*812 _0597_
*813 _0598_
*814 _0599_
*815 _0600_
*816 _0601_
*817 _0602_
*818 _0603_
*819 _0604_
*820 _0605_
*821 _0606_
*822 _0607_
*823 _0608_
*824 _0609_
*825 _0610_
*826 _0611_
*827 _0612_
*828 _0613_
*829 _0614_
*830 _0615_
*831 _0616_
*832 _0617_
*833 _0618_
*834 _0619_
*835 _0620_
*836 _0621_
*837 _0622_
*838 _0623_
*839 _0624_
*840 _0625_
*841 _0626_
*842 _0627_
*843 _0628_
*844 _0629_
*845 _0630_
*846 _0631_
*847 _0632_
*848 _0633_
*849 _0634_
*850 _0635_
*851 _0636_
*852 _0637_
*853 _0638_
*854 _0639_
*855 _0640_
*856 _0641_
*857 _0642_
*858 _0643_
*859 _0644_
*860 _0645_
*861 _0646_
*862 _0647_
*863 _0648_
*864 _0649_
*865 _0650_
*866 _0651_
*867 _0652_
*868 _0653_
*869 _0654_
*870 _0655_
*871 _0656_
*872 _0657_
*873 _0658_
*874 _0659_
*875 _0660_
*876 _0661_
*877 _0662_
*878 _0663_
*879 _0664_
*880 _0665_
*881 _0666_
*882 _0667_
*883 _0668_
*884 _0669_
*885 _0670_
*886 _0671_
*887 _0672_
*888 _0673_
*889 _0674_
*890 _0675_
*891 _0676_
*892 _0677_
*893 _0678_
*894 _0679_
*895 _0680_
*896 _0681_
*897 _0682_
*898 _0683_
*899 _0684_
*900 _0685_
*901 _0686_
*902 _0687_
*903 _0688_
*904 _0689_
*905 _0690_
*906 _0691_
*907 _0692_
*908 _0693_
*909 _0694_
*910 _0695_
*911 _0696_
*912 _0697_
*913 _0698_
*914 _0699_
*915 _0700_
*916 _0701_
*917 _0702_
*918 _0703_
*919 _0704_
*920 _0705_
*921 _0706_
*922 _0707_
*923 _0708_
*924 _0709_
*925 _0710_
*926 _0711_
*927 _0712_
*928 _0713_
*929 _0714_
*930 _0715_
*931 _0716_
*932 _0717_
*933 _0718_
*934 _0719_
*935 _0720_
*936 _0721_
*937 _0722_
*938 _0723_
*939 _0724_
*940 _0725_
*941 _0726_
*942 _0727_
*943 _0728_
*944 _0729_
*945 _0730_
*946 _0731_
*947 _0732_
*948 _0733_
*949 _0734_
*950 _0735_
*951 _0736_
*952 _0737_
*953 _0738_
*954 _0739_
*955 _0740_
*956 _0741_
*957 _0742_
*958 _0743_
*959 _0744_
*960 _0745_
*961 _0746_
*962 _0747_
*963 _0748_
*964 _0749_
*965 _0750_
*966 _0751_
*967 _0752_
*968 _0753_
*969 _0754_
*970 _0755_
*971 _0756_
*972 _0757_
*973 _0758_
*974 _0759_
*975 _0760_
*976 _0761_
*977 _0762_
*978 _0763_
*979 _0764_
*980 _0765_
*981 _0766_
*982 _0767_
*983 _0768_
*984 _0769_
*985 _0770_
*986 _0771_
*987 _0772_
*988 _0773_
*989 _0774_
*990 _0775_
*991 _0776_
*992 _0777_
*993 _0778_
*994 _0779_
*995 _0780_
*996 _0781_
*997 _0782_
*998 _0783_
*999 _0784_
*1000 _0785_
*1001 _0786_
*1002 _0787_
*1003 _0788_
*1004 _0789_
*1005 _0790_
*1006 _0791_
*1007 _0792_
*1008 _0793_
*1009 _0794_
*1010 _0795_
*1011 _0796_
*1012 _0797_
*1013 _0798_
*1014 _0799_
*1015 _0800_
*1016 _0801_
*1017 _0802_
*1018 _0803_
*1019 _0804_
*1020 _0805_
*1021 _0806_
*1022 _0807_
*1023 _0808_
*1024 _0809_
*1025 _0810_
*1026 _0811_
*1027 _0812_
*1028 _0813_
*1029 _0814_
*1030 _0815_
*1031 _0816_
*1032 _0817_
*1033 _0818_
*1034 _0819_
*1035 _0820_
*1036 _0821_
*1037 _0822_
*1038 _0823_
*1039 _0824_
*1040 _0825_
*1041 _0826_
*1042 _0827_
*1043 _0828_
*1044 _0829_
*1045 _0830_
*1046 _0831_
*1047 _0832_
*1048 _0833_
*1049 _0834_
*1050 _0835_
*1051 _0836_
*1052 _0837_
*1053 _0838_
*1054 _0839_
*1055 _0840_
*1056 _0841_
*1057 _0842_
*1058 _0843_
*1059 _0844_
*1060 _0845_
*1061 _0846_
*1062 _0847_
*1063 _0848_
*1064 _0849_
*1065 _0850_
*1066 _0851_
*1067 _0852_
*1068 _0853_
*1069 _0854_
*1070 _0855_
*1071 _0856_
*1072 _0857_
*1073 _0858_
*1074 _0859_
*1075 _0860_
*1076 _0861_
*1077 _0862_
*1078 _0863_
*1079 _0864_
*1080 _0865_
*1081 _0866_
*1082 _0867_
*1083 _0868_
*1084 _0869_
*1085 _0870_
*1086 _0871_
*1087 _0872_
*1088 _0873_
*1089 _0874_
*1090 _0875_
*1091 _0876_
*1092 _0877_
*1093 _0878_
*1094 _0879_
*1095 _0880_
*1096 _0881_
*1097 _0882_
*1098 _0883_
*1099 _0884_
*1100 _0885_
*1101 _0886_
*1102 _0887_
*1103 _0888_
*1104 _0889_
*1105 _0890_
*1106 _0891_
*1107 _0892_
*1108 _0893_
*1109 _0894_
*1110 _0895_
*1111 _0896_
*1112 _0897_
*1113 _0898_
*1114 _0899_
*1115 _0900_
*1116 _0901_
*1117 _0902_
*1118 _0903_
*1119 _0904_
*1120 _0905_
*1121 _0906_
*1122 _0907_
*1123 _0908_
*1124 _0909_
*1125 _0910_
*1126 _0911_
*1127 _0912_
*1128 _0913_
*1129 _0914_
*1130 _0915_
*1131 _0916_
*1132 _0917_
*1133 _0918_
*1134 _0919_
*1135 _0920_
*1136 _0921_
*1137 _0922_
*1138 _0923_
*1139 _0924_
*1140 _0925_
*1141 _0926_
*1142 _0927_
*1143 _0928_
*1144 _0929_
*1145 _0930_
*1146 _0931_
*1147 _0932_
*1148 _0933_
*1149 _0934_
*1150 _0935_
*1151 _0936_
*1152 _0937_
*1153 _0938_
*1154 _0939_
*1155 _0940_
*1156 _0941_
*1157 _0942_
*1158 _0943_
*1159 _0944_
*1160 _0945_
*1161 _0946_
*1162 _0947_
*1163 _0948_
*1164 _0949_
*1165 _0950_
*1166 _0951_
*1167 _0952_
*1168 _0953_
*1169 _0954_
*1170 _0955_
*1171 _0956_
*1172 _0957_
*1173 _0958_
*1174 _0959_
*1175 _0960_
*1176 _0961_
*1177 _0962_
*1178 _0963_
*1179 _0964_
*1180 _0965_
*1181 _0966_
*1182 _0967_
*1183 _0968_
*1184 _0969_
*1185 _0970_
*1186 _0971_
*1187 _0972_
*1188 _0973_
*1189 _0974_
*1190 _0975_
*1191 _0976_
*1192 _0977_
*1193 _0978_
*1194 _0979_
*1195 _0980_
*1196 _0981_
*1197 _0982_
*1198 _0983_
*1199 _0984_
*1200 _0985_
*1201 _0986_
*1202 _0987_
*1203 _0988_
*1204 _0989_
*1205 _0990_
*1206 _0991_
*1207 _0992_
*1208 _0993_
*1209 _0994_
*1210 _0995_
*1211 _0996_
*1212 _0997_
*1213 _0998_
*1214 _0999_
*1215 _1000_
*1216 _1001_
*1217 _1002_
*1218 _1003_
*1219 _1004_
*1220 _1005_
*1221 _1006_
*1222 _1007_
*1223 _1008_
*1224 _1009_
*1225 _1010_
*1226 _1011_
*1227 _1012_
*1228 _1013_
*1229 _1014_
*1230 _1015_
*1231 _1016_
*1232 _1017_
*1233 _1018_
*1234 _1019_
*1235 _1020_
*1236 _1021_
*1237 _1022_
*1238 _1023_
*1239 _1024_
*1240 _1025_
*1241 _1026_
*1242 _1027_
*1243 _1028_
*1244 _1029_
*1245 _1030_
*1246 _1031_
*1247 _1032_
*1248 _1033_
*1249 _1034_
*1250 _1035_
*1251 _1036_
*1252 _1037_
*1253 _1038_
*1254 _1039_
*1255 _1040_
*1256 _1041_
*1257 _1042_
*1258 _1043_
*1259 _1044_
*1260 _1045_
*1261 _1046_
*1262 _1047_
*1263 _1048_
*1264 _1049_
*1265 _1050_
*1266 _1051_
*1267 _1052_
*1268 _1053_
*1269 _1054_
*1270 _1055_
*1271 _1056_
*1272 _1057_
*1273 _1058_
*1274 _1059_
*1275 _1060_
*1276 _1061_
*1277 _1062_
*1278 _1063_
*1279 _1064_
*1280 _1065_
*1281 _1066_
*1282 _1067_
*1283 _1068_
*1284 _1069_
*1285 _1070_
*1286 _1071_
*1287 _1072_
*1288 _1073_
*1289 _1074_
*1290 _1075_
*1291 _1076_
*1292 _1077_
*1293 _1078_
*1294 _1079_
*1295 _1080_
*1296 _1081_
*1297 _1082_
*1298 _1083_
*1299 _1084_
*1300 _1085_
*1301 _1086_
*1302 _1087_
*1303 _1088_
*1304 _1089_
*1305 _1090_
*1306 _1091_
*1307 _1092_
*1308 _1093_
*1309 _1094_
*1310 _1095_
*1311 _1096_
*1312 _1097_
*1313 _1098_
*1314 _1099_
*1315 _1100_
*1316 _1101_
*1317 _1102_
*1318 _1103_
*1319 _1104_
*1320 _1105_
*1321 _1106_
*1322 _1107_
*1323 _1108_
*1324 _1109_
*1325 _1110_
*1326 _1111_
*1327 _1112_
*1328 _1113_
*1329 _1114_
*1330 _1115_
*1331 _1116_
*1332 _1117_
*1333 _1118_
*1334 _1119_
*1335 _1120_
*1336 _1121_
*1337 _1122_
*1338 _1123_
*1339 _1124_
*1340 _1125_
*1341 _1126_
*1342 _1127_
*1343 _1128_
*1344 _1129_
*1345 _1130_
*1346 _1131_
*1347 _1132_
*1348 _1133_
*1349 _1134_
*1350 _1135_
*1351 _1136_
*1352 _1137_
*1353 _1138_
*1354 _1139_
*1355 _1140_
*1356 _1141_
*1357 _1142_
*1358 _1143_
*1359 _1144_
*1360 _1145_
*1361 _1146_
*1362 _1147_
*1363 _1148_
*1364 _1149_
*1365 _1150_
*1366 _1151_
*1367 _1152_
*1368 clknet_0_wb_clk_i
*1369 clknet_1_0_0_wb_clk_i
*1370 clknet_1_1_0_wb_clk_i
*1371 clknet_2_0_0_wb_clk_i
*1372 clknet_2_1_0_wb_clk_i
*1373 clknet_2_2_0_wb_clk_i
*1374 clknet_2_3_0_wb_clk_i
*1375 clknet_3_0_0_wb_clk_i
*1376 clknet_3_1_0_wb_clk_i
*1377 clknet_3_2_0_wb_clk_i
*1378 clknet_3_3_0_wb_clk_i
*1379 clknet_3_4_0_wb_clk_i
*1380 clknet_3_5_0_wb_clk_i
*1381 clknet_3_6_0_wb_clk_i
*1382 clknet_3_7_0_wb_clk_i
*1383 clknet_4_0_0_wb_clk_i
*1384 clknet_4_10_0_wb_clk_i
*1385 clknet_4_11_0_wb_clk_i
*1386 clknet_4_12_0_wb_clk_i
*1387 clknet_4_13_0_wb_clk_i
*1388 clknet_4_14_0_wb_clk_i
*1389 clknet_4_15_0_wb_clk_i
*1390 clknet_4_1_0_wb_clk_i
*1391 clknet_4_2_0_wb_clk_i
*1392 clknet_4_3_0_wb_clk_i
*1393 clknet_4_4_0_wb_clk_i
*1394 clknet_4_5_0_wb_clk_i
*1395 clknet_4_6_0_wb_clk_i
*1396 clknet_4_7_0_wb_clk_i
*1397 clknet_4_8_0_wb_clk_i
*1398 clknet_4_9_0_wb_clk_i
*1399 cpr\.breathTime\[0\]
*1400 cpr\.breathTime\[10\]
*1401 cpr\.breathTime\[11\]
*1402 cpr\.breathTime\[12\]
*1403 cpr\.breathTime\[13\]
*1404 cpr\.breathTime\[14\]
*1405 cpr\.breathTime\[15\]
*1406 cpr\.breathTime\[16\]
*1407 cpr\.breathTime\[17\]
*1408 cpr\.breathTime\[18\]
*1409 cpr\.breathTime\[19\]
*1410 cpr\.breathTime\[1\]
*1411 cpr\.breathTime\[20\]
*1412 cpr\.breathTime\[21\]
*1413 cpr\.breathTime\[22\]
*1414 cpr\.breathTime\[23\]
*1415 cpr\.breathTime\[24\]
*1416 cpr\.breathTime\[25\]
*1417 cpr\.breathTime\[26\]
*1418 cpr\.breathTime\[27\]
*1419 cpr\.breathTime\[28\]
*1420 cpr\.breathTime\[29\]
*1421 cpr\.breathTime\[2\]
*1422 cpr\.breathTime\[30\]
*1423 cpr\.breathTime\[31\]
*1424 cpr\.breathTime\[3\]
*1425 cpr\.breathTime\[4\]
*1426 cpr\.breathTime\[5\]
*1427 cpr\.breathTime\[6\]
*1428 cpr\.breathTime\[7\]
*1429 cpr\.breathTime\[8\]
*1430 cpr\.breathTime\[9\]
*1431 cpr\.breath_out
*1432 cpr\.breatheCount\[0\]
*1433 cpr\.breatheCount\[10\]
*1434 cpr\.breatheCount\[11\]
*1435 cpr\.breatheCount\[12\]
*1436 cpr\.breatheCount\[13\]
*1437 cpr\.breatheCount\[14\]
*1438 cpr\.breatheCount\[15\]
*1439 cpr\.breatheCount\[16\]
*1440 cpr\.breatheCount\[17\]
*1441 cpr\.breatheCount\[18\]
*1442 cpr\.breatheCount\[19\]
*1443 cpr\.breatheCount\[1\]
*1444 cpr\.breatheCount\[20\]
*1445 cpr\.breatheCount\[21\]
*1446 cpr\.breatheCount\[22\]
*1447 cpr\.breatheCount\[23\]
*1448 cpr\.breatheCount\[24\]
*1449 cpr\.breatheCount\[25\]
*1450 cpr\.breatheCount\[26\]
*1451 cpr\.breatheCount\[27\]
*1452 cpr\.breatheCount\[28\]
*1453 cpr\.breatheCount\[29\]
*1454 cpr\.breatheCount\[2\]
*1455 cpr\.breatheCount\[30\]
*1456 cpr\.breatheCount\[31\]
*1457 cpr\.breatheCount\[3\]
*1458 cpr\.breatheCount\[4\]
*1459 cpr\.breatheCount\[5\]
*1460 cpr\.breatheCount\[6\]
*1461 cpr\.breatheCount\[7\]
*1462 cpr\.breatheCount\[8\]
*1463 cpr\.breatheCount\[9\]
*1464 cpr\.compressCount\[0\]
*1465 cpr\.compressCount\[10\]
*1466 cpr\.compressCount\[11\]
*1467 cpr\.compressCount\[12\]
*1468 cpr\.compressCount\[13\]
*1469 cpr\.compressCount\[14\]
*1470 cpr\.compressCount\[15\]
*1471 cpr\.compressCount\[16\]
*1472 cpr\.compressCount\[17\]
*1473 cpr\.compressCount\[18\]
*1474 cpr\.compressCount\[19\]
*1475 cpr\.compressCount\[1\]
*1476 cpr\.compressCount\[20\]
*1477 cpr\.compressCount\[21\]
*1478 cpr\.compressCount\[22\]
*1479 cpr\.compressCount\[23\]
*1480 cpr\.compressCount\[24\]
*1481 cpr\.compressCount\[25\]
*1482 cpr\.compressCount\[26\]
*1483 cpr\.compressCount\[27\]
*1484 cpr\.compressCount\[28\]
*1485 cpr\.compressCount\[29\]
*1486 cpr\.compressCount\[2\]
*1487 cpr\.compressCount\[30\]
*1488 cpr\.compressCount\[31\]
*1489 cpr\.compressCount\[3\]
*1490 cpr\.compressCount\[4\]
*1491 cpr\.compressCount\[5\]
*1492 cpr\.compressCount\[6\]
*1493 cpr\.compressCount\[7\]
*1494 cpr\.compressCount\[8\]
*1495 cpr\.compressCount\[9\]
*1496 cpr\.compressTime\[0\]
*1497 cpr\.compressTime\[10\]
*1498 cpr\.compressTime\[11\]
*1499 cpr\.compressTime\[12\]
*1500 cpr\.compressTime\[13\]
*1501 cpr\.compressTime\[14\]
*1502 cpr\.compressTime\[15\]
*1503 cpr\.compressTime\[16\]
*1504 cpr\.compressTime\[17\]
*1505 cpr\.compressTime\[18\]
*1506 cpr\.compressTime\[19\]
*1507 cpr\.compressTime\[1\]
*1508 cpr\.compressTime\[20\]
*1509 cpr\.compressTime\[21\]
*1510 cpr\.compressTime\[22\]
*1511 cpr\.compressTime\[23\]
*1512 cpr\.compressTime\[24\]
*1513 cpr\.compressTime\[25\]
*1514 cpr\.compressTime\[26\]
*1515 cpr\.compressTime\[27\]
*1516 cpr\.compressTime\[28\]
*1517 cpr\.compressTime\[29\]
*1518 cpr\.compressTime\[2\]
*1519 cpr\.compressTime\[30\]
*1520 cpr\.compressTime\[31\]
*1521 cpr\.compressTime\[3\]
*1522 cpr\.compressTime\[4\]
*1523 cpr\.compressTime\[5\]
*1524 cpr\.compressTime\[6\]
*1525 cpr\.compressTime\[7\]
*1526 cpr\.compressTime\[8\]
*1527 cpr\.compressTime\[9\]
*1528 cpr\.compress_out
*1529 cpr\.pulse_out
*1530 cpr\.state\[0\]
*1531 cpr\.state\[1\]
*1532 cpr\.zeroTime\[0\]
*1533 cpr\.zeroTime\[10\]
*1534 cpr\.zeroTime\[11\]
*1535 cpr\.zeroTime\[12\]
*1536 cpr\.zeroTime\[13\]
*1537 cpr\.zeroTime\[14\]
*1538 cpr\.zeroTime\[15\]
*1539 cpr\.zeroTime\[16\]
*1540 cpr\.zeroTime\[17\]
*1541 cpr\.zeroTime\[18\]
*1542 cpr\.zeroTime\[19\]
*1543 cpr\.zeroTime\[1\]
*1544 cpr\.zeroTime\[20\]
*1545 cpr\.zeroTime\[21\]
*1546 cpr\.zeroTime\[22\]
*1547 cpr\.zeroTime\[23\]
*1548 cpr\.zeroTime\[24\]
*1549 cpr\.zeroTime\[25\]
*1550 cpr\.zeroTime\[26\]
*1551 cpr\.zeroTime\[27\]
*1552 cpr\.zeroTime\[28\]
*1553 cpr\.zeroTime\[29\]
*1554 cpr\.zeroTime\[2\]
*1555 cpr\.zeroTime\[30\]
*1556 cpr\.zeroTime\[31\]
*1557 cpr\.zeroTime\[3\]
*1558 cpr\.zeroTime\[4\]
*1559 cpr\.zeroTime\[5\]
*1560 cpr\.zeroTime\[6\]
*1561 cpr\.zeroTime\[7\]
*1562 cpr\.zeroTime\[8\]
*1563 cpr\.zeroTime\[9\]
*1564 net1
*1565 net10
*1566 net100
*1567 net101
*1568 net102
*1569 net103
*1570 net104
*1571 net105
*1572 net106
*1573 net11
*1574 net12
*1575 net13
*1576 net14
*1577 net15
*1578 net16
*1579 net17
*1580 net18
*1581 net19
*1582 net2
*1583 net20
*1584 net21
*1585 net22
*1586 net23
*1587 net24
*1588 net25
*1589 net26
*1590 net27
*1591 net28
*1592 net29
*1593 net3
*1594 net30
*1595 net31
*1596 net32
*1597 net33
*1598 net34
*1599 net35
*1600 net36
*1601 net37
*1602 net38
*1603 net39
*1604 net4
*1605 net40
*1606 net41
*1607 net42
*1608 net43
*1609 net44
*1610 net45
*1611 net46
*1612 net47
*1613 net48
*1614 net49
*1615 net5
*1616 net50
*1617 net51
*1618 net52
*1619 net53
*1620 net54
*1621 net55
*1622 net56
*1623 net57
*1624 net58
*1625 net59
*1626 net6
*1627 net60
*1628 net61
*1629 net62
*1630 net63
*1631 net64
*1632 net65
*1633 net66
*1634 net67
*1635 net68
*1636 net69
*1637 net7
*1638 net70
*1639 net71
*1640 net72
*1641 net73
*1642 net74
*1643 net75
*1644 net76
*1645 net77
*1646 net78
*1647 net79
*1648 net8
*1649 net80
*1650 net81
*1651 net82
*1652 net83
*1653 net84
*1654 net85
*1655 net86
*1656 net87
*1657 net88
*1658 net89
*1659 net9
*1660 net90
*1661 net91
*1662 net92
*1663 net93
*1664 net94
*1665 net95
*1666 net96
*1667 net97
*1668 net98
*1669 net99
*1670 FILLER_0_106
*1671 FILLER_0_113
*1672 FILLER_0_125
*1673 FILLER_0_134
*1674 FILLER_0_141
*1675 FILLER_0_153
*1676 FILLER_0_165
*1677 FILLER_0_172
*1678 FILLER_0_184
*1679 FILLER_0_188
*1680 FILLER_0_192
*1681 FILLER_0_197
*1682 FILLER_0_219
*1683 FILLER_0_223
*1684 FILLER_0_228
*1685 FILLER_0_235
*1686 FILLER_0_24
*1687 FILLER_0_242
*1688 FILLER_0_250
*1689 FILLER_0_253
*1690 FILLER_0_259
*1691 FILLER_0_271
*1692 FILLER_0_279
*1693 FILLER_0_281
*1694 FILLER_0_293
*1695 FILLER_0_305
*1696 FILLER_0_309
*1697 FILLER_0_321
*1698 FILLER_0_325
*1699 FILLER_0_332
*1700 FILLER_0_337
*1701 FILLER_0_360
*1702 FILLER_0_365
*1703 FILLER_0_388
*1704 FILLER_0_396
*1705 FILLER_0_403
*1706 FILLER_0_50
*1707 FILLER_0_78
*1708 FILLER_10_10
*1709 FILLER_10_109
*1710 FILLER_10_121
*1711 FILLER_10_133
*1712 FILLER_10_139
*1713 FILLER_10_141
*1714 FILLER_10_153
*1715 FILLER_10_158
*1716 FILLER_10_167
*1717 FILLER_10_178
*1718 FILLER_10_189
*1719 FILLER_10_195
*1720 FILLER_10_197
*1721 FILLER_10_204
*1722 FILLER_10_208
*1723 FILLER_10_219
*1724 FILLER_10_22
*1725 FILLER_10_227
*1726 FILLER_10_239
*1727 FILLER_10_248
*1728 FILLER_10_253
*1729 FILLER_10_264
*1730 FILLER_10_268
*1731 FILLER_10_276
*1732 FILLER_10_288
*1733 FILLER_10_29
*1734 FILLER_10_299
*1735 FILLER_10_3
*1736 FILLER_10_307
*1737 FILLER_10_312
*1738 FILLER_10_319
*1739 FILLER_10_326
*1740 FILLER_10_338
*1741 FILLER_10_350
*1742 FILLER_10_362
*1743 FILLER_10_365
*1744 FILLER_10_371
*1745 FILLER_10_396
*1746 FILLER_10_403
*1747 FILLER_10_52
*1748 FILLER_10_64
*1749 FILLER_10_76
*1750 FILLER_10_85
*1751 FILLER_10_97
*1752 FILLER_11_105
*1753 FILLER_11_11
*1754 FILLER_11_111
*1755 FILLER_11_113
*1756 FILLER_11_125
*1757 FILLER_11_137
*1758 FILLER_11_158
*1759 FILLER_11_166
*1760 FILLER_11_175
*1761 FILLER_11_186
*1762 FILLER_11_195
*1763 FILLER_11_204
*1764 FILLER_11_212
*1765 FILLER_11_220
*1766 FILLER_11_225
*1767 FILLER_11_230
*1768 FILLER_11_234
*1769 FILLER_11_238
*1770 FILLER_11_253
*1771 FILLER_11_262
*1772 FILLER_11_276
*1773 FILLER_11_281
*1774 FILLER_11_285
*1775 FILLER_11_296
*1776 FILLER_11_3
*1777 FILLER_11_320
*1778 FILLER_11_332
*1779 FILLER_11_337
*1780 FILLER_11_349
*1781 FILLER_11_361
*1782 FILLER_11_373
*1783 FILLER_11_38
*1784 FILLER_11_388
*1785 FILLER_11_393
*1786 FILLER_11_400
*1787 FILLER_11_406
*1788 FILLER_11_45
*1789 FILLER_11_53
*1790 FILLER_11_57
*1791 FILLER_11_69
*1792 FILLER_11_7
*1793 FILLER_11_81
*1794 FILLER_11_93
*1795 FILLER_12_109
*1796 FILLER_12_121
*1797 FILLER_12_136
*1798 FILLER_12_161
*1799 FILLER_12_168
*1800 FILLER_12_172
*1801 FILLER_12_182
*1802 FILLER_12_190
*1803 FILLER_12_201
*1804 FILLER_12_210
*1805 FILLER_12_225
*1806 FILLER_12_236
*1807 FILLER_12_24
*1808 FILLER_12_244
*1809 FILLER_12_248
*1810 FILLER_12_260
*1811 FILLER_12_268
*1812 FILLER_12_276
*1813 FILLER_12_287
*1814 FILLER_12_301
*1815 FILLER_12_307
*1816 FILLER_12_315
*1817 FILLER_12_32
*1818 FILLER_12_322
*1819 FILLER_12_329
*1820 FILLER_12_341
*1821 FILLER_12_353
*1822 FILLER_12_361
*1823 FILLER_12_365
*1824 FILLER_12_374
*1825 FILLER_12_39
*1826 FILLER_12_403
*1827 FILLER_12_51
*1828 FILLER_12_63
*1829 FILLER_12_75
*1830 FILLER_12_83
*1831 FILLER_12_85
*1832 FILLER_12_97
*1833 FILLER_13_105
*1834 FILLER_13_111
*1835 FILLER_13_113
*1836 FILLER_13_125
*1837 FILLER_13_129
*1838 FILLER_13_150
*1839 FILLER_13_16
*1840 FILLER_13_164
*1841 FILLER_13_177
*1842 FILLER_13_181
*1843 FILLER_13_189
*1844 FILLER_13_198
*1845 FILLER_13_20
*1846 FILLER_13_210
*1847 FILLER_13_220
*1848 FILLER_13_225
*1849 FILLER_13_236
*1850 FILLER_13_242
*1851 FILLER_13_252
*1852 FILLER_13_258
*1853 FILLER_13_265
*1854 FILLER_13_276
*1855 FILLER_13_281
*1856 FILLER_13_292
*1857 FILLER_13_298
*1858 FILLER_13_3
*1859 FILLER_13_319
*1860 FILLER_13_32
*1861 FILLER_13_326
*1862 FILLER_13_334
*1863 FILLER_13_337
*1864 FILLER_13_349
*1865 FILLER_13_360
*1866 FILLER_13_371
*1867 FILLER_13_378
*1868 FILLER_13_384
*1869 FILLER_13_388
*1870 FILLER_13_393
*1871 FILLER_13_398
*1872 FILLER_13_406
*1873 FILLER_13_44
*1874 FILLER_13_57
*1875 FILLER_13_69
*1876 FILLER_13_8
*1877 FILLER_13_81
*1878 FILLER_13_93
*1879 FILLER_14_109
*1880 FILLER_14_121
*1881 FILLER_14_133
*1882 FILLER_14_139
*1883 FILLER_14_144
*1884 FILLER_14_15
*1885 FILLER_14_151
*1886 FILLER_14_155
*1887 FILLER_14_166
*1888 FILLER_14_179
*1889 FILLER_14_188
*1890 FILLER_14_206
*1891 FILLER_14_218
*1892 FILLER_14_226
*1893 FILLER_14_238
*1894 FILLER_14_248
*1895 FILLER_14_253
*1896 FILLER_14_27
*1897 FILLER_14_279
*1898 FILLER_14_29
*1899 FILLER_14_296
*1900 FILLER_14_3
*1901 FILLER_14_304
*1902 FILLER_14_313
*1903 FILLER_14_321
*1904 FILLER_14_326
*1905 FILLER_14_333
*1906 FILLER_14_340
*1907 FILLER_14_352
*1908 FILLER_14_356
*1909 FILLER_14_360
*1910 FILLER_14_365
*1911 FILLER_14_370
*1912 FILLER_14_377
*1913 FILLER_14_381
*1914 FILLER_14_403
*1915 FILLER_14_41
*1916 FILLER_14_53
*1917 FILLER_14_65
*1918 FILLER_14_77
*1919 FILLER_14_83
*1920 FILLER_14_85
*1921 FILLER_14_97
*1922 FILLER_15_105
*1923 FILLER_15_111
*1924 FILLER_15_113
*1925 FILLER_15_125
*1926 FILLER_15_137