*SPEF "ieee 1481-1999"
*DESIGN "wrapped_instrumented_adder_ripple"
*DATE "11:11:11 Fri 11 11, 1111"
*VENDOR "OpenRCX"
*PROGRAM "Parallel Extraction"
*VERSION "1.0"
*DESIGN_FLOW "NAME_SCOPE LOCAL" "PIN_CAP NONE"
*DIVIDER /
*DELIMITER :
*BUS_DELIMITER []
*T_UNIT 1 NS
*C_UNIT 1 PF
*R_UNIT 1 OHM
*L_UNIT 1 HENRY

*NAME_MAP
*1 active
*2 io_in[0]
*3 io_in[10]
*4 io_in[11]
*5 io_in[12]
*6 io_in[13]
*7 io_in[14]
*8 io_in[15]
*9 io_in[16]
*10 io_in[17]
*11 io_in[18]
*12 io_in[19]
*13 io_in[1]
*14 io_in[20]
*15 io_in[21]
*16 io_in[22]
*17 io_in[23]
*18 io_in[24]
*19 io_in[25]
*20 io_in[26]
*21 io_in[27]
*22 io_in[28]
*23 io_in[29]
*24 io_in[2]
*25 io_in[30]
*26 io_in[31]
*27 io_in[32]
*28 io_in[33]
*29 io_in[34]
*30 io_in[35]
*31 io_in[36]
*32 io_in[37]
*33 io_in[3]
*34 io_in[4]
*35 io_in[5]
*36 io_in[6]
*37 io_in[7]
*38 io_in[8]
*39 io_in[9]
*40 io_oeb[0]
*41 io_oeb[10]
*42 io_oeb[11]
*43 io_oeb[12]
*44 io_oeb[13]
*45 io_oeb[14]
*46 io_oeb[15]
*47 io_oeb[16]
*48 io_oeb[17]
*49 io_oeb[18]
*50 io_oeb[19]
*51 io_oeb[1]
*52 io_oeb[20]
*53 io_oeb[21]
*54 io_oeb[22]
*55 io_oeb[23]
*56 io_oeb[24]
*57 io_oeb[25]
*58 io_oeb[26]
*59 io_oeb[27]
*60 io_oeb[28]
*61 io_oeb[29]
*62 io_oeb[2]
*63 io_oeb[30]
*64 io_oeb[31]
*65 io_oeb[32]
*66 io_oeb[33]
*67 io_oeb[34]
*68 io_oeb[35]
*69 io_oeb[36]
*70 io_oeb[37]
*71 io_oeb[3]
*72 io_oeb[4]
*73 io_oeb[5]
*74 io_oeb[6]
*75 io_oeb[7]
*76 io_oeb[8]
*77 io_oeb[9]
*78 io_out[0]
*79 io_out[10]
*80 io_out[11]
*81 io_out[12]
*82 io_out[13]
*83 io_out[14]
*84 io_out[15]
*85 io_out[16]
*86 io_out[17]
*87 io_out[18]
*88 io_out[19]
*89 io_out[1]
*90 io_out[20]
*91 io_out[21]
*92 io_out[22]
*93 io_out[23]
*94 io_out[24]
*95 io_out[25]
*96 io_out[26]
*97 io_out[27]
*98 io_out[28]
*99 io_out[29]
*100 io_out[2]
*101 io_out[30]
*102 io_out[31]
*103 io_out[32]
*104 io_out[33]
*105 io_out[34]
*106 io_out[35]
*107 io_out[36]
*108 io_out[37]
*109 io_out[3]
*110 io_out[4]
*111 io_out[5]
*112 io_out[6]
*113 io_out[7]
*114 io_out[8]
*115 io_out[9]
*116 la1_data_in[0]
*117 la1_data_in[10]
*118 la1_data_in[11]
*119 la1_data_in[12]
*120 la1_data_in[13]
*121 la1_data_in[14]
*122 la1_data_in[15]
*123 la1_data_in[16]
*124 la1_data_in[17]
*125 la1_data_in[18]
*126 la1_data_in[19]
*127 la1_data_in[1]
*128 la1_data_in[20]
*129 la1_data_in[21]
*130 la1_data_in[22]
*131 la1_data_in[23]
*132 la1_data_in[24]
*133 la1_data_in[25]
*134 la1_data_in[26]
*135 la1_data_in[27]
*136 la1_data_in[28]
*137 la1_data_in[29]
*138 la1_data_in[2]
*139 la1_data_in[30]
*140 la1_data_in[31]
*141 la1_data_in[3]
*142 la1_data_in[4]
*143 la1_data_in[5]
*144 la1_data_in[6]
*145 la1_data_in[7]
*146 la1_data_in[8]
*147 la1_data_in[9]
*148 la1_data_out[0]
*149 la1_data_out[10]
*150 la1_data_out[11]
*151 la1_data_out[12]
*152 la1_data_out[13]
*153 la1_data_out[14]
*154 la1_data_out[15]
*155 la1_data_out[16]
*156 la1_data_out[17]
*157 la1_data_out[18]
*158 la1_data_out[19]
*159 la1_data_out[1]
*160 la1_data_out[20]
*161 la1_data_out[21]
*162 la1_data_out[22]
*163 la1_data_out[23]
*164 la1_data_out[24]
*165 la1_data_out[25]
*166 la1_data_out[26]
*167 la1_data_out[27]
*168 la1_data_out[28]
*169 la1_data_out[29]
*170 la1_data_out[2]
*171 la1_data_out[30]
*172 la1_data_out[31]
*173 la1_data_out[3]
*174 la1_data_out[4]
*175 la1_data_out[5]
*176 la1_data_out[6]
*177 la1_data_out[7]
*178 la1_data_out[8]
*179 la1_data_out[9]
*180 la1_oenb[0]
*181 la1_oenb[10]
*182 la1_oenb[11]
*183 la1_oenb[12]
*184 la1_oenb[13]
*185 la1_oenb[14]
*186 la1_oenb[15]
*187 la1_oenb[16]
*188 la1_oenb[17]
*189 la1_oenb[18]
*190 la1_oenb[19]
*191 la1_oenb[1]
*192 la1_oenb[20]
*193 la1_oenb[21]
*194 la1_oenb[22]
*195 la1_oenb[23]
*196 la1_oenb[24]
*197 la1_oenb[25]
*198 la1_oenb[26]
*199 la1_oenb[27]
*200 la1_oenb[28]
*201 la1_oenb[29]
*202 la1_oenb[2]
*203 la1_oenb[30]
*204 la1_oenb[31]
*205 la1_oenb[3]
*206 la1_oenb[4]
*207 la1_oenb[5]
*208 la1_oenb[6]
*209 la1_oenb[7]
*210 la1_oenb[8]
*211 la1_oenb[9]
*212 la2_data_in[0]
*213 la2_data_in[10]
*214 la2_data_in[11]
*215 la2_data_in[12]
*216 la2_data_in[13]
*217 la2_data_in[14]
*218 la2_data_in[15]
*219 la2_data_in[16]
*220 la2_data_in[17]
*221 la2_data_in[18]
*222 la2_data_in[19]
*223 la2_data_in[1]
*224 la2_data_in[20]
*225 la2_data_in[21]
*226 la2_data_in[22]
*227 la2_data_in[23]
*228 la2_data_in[24]
*229 la2_data_in[25]
*230 la2_data_in[26]
*231 la2_data_in[27]
*232 la2_data_in[28]
*233 la2_data_in[29]
*234 la2_data_in[2]
*235 la2_data_in[30]
*236 la2_data_in[31]
*237 la2_data_in[3]
*238 la2_data_in[4]
*239 la2_data_in[5]
*240 la2_data_in[6]
*241 la2_data_in[7]
*242 la2_data_in[8]
*243 la2_data_in[9]
*244 la2_data_out[0]
*245 la2_data_out[10]
*246 la2_data_out[11]
*247 la2_data_out[12]
*248 la2_data_out[13]
*249 la2_data_out[14]
*250 la2_data_out[15]
*251 la2_data_out[16]
*252 la2_data_out[17]
*253 la2_data_out[18]
*254 la2_data_out[19]
*255 la2_data_out[1]
*256 la2_data_out[20]
*257 la2_data_out[21]
*258 la2_data_out[22]
*259 la2_data_out[23]
*260 la2_data_out[24]
*261 la2_data_out[25]
*262 la2_data_out[26]
*263 la2_data_out[27]
*264 la2_data_out[28]
*265 la2_data_out[29]
*266 la2_data_out[2]
*267 la2_data_out[30]
*268 la2_data_out[31]
*269 la2_data_out[3]
*270 la2_data_out[4]
*271 la2_data_out[5]
*272 la2_data_out[6]
*273 la2_data_out[7]
*274 la2_data_out[8]
*275 la2_data_out[9]
*276 la2_oenb[0]
*277 la2_oenb[10]
*278 la2_oenb[11]
*279 la2_oenb[12]
*280 la2_oenb[13]
*281 la2_oenb[14]
*282 la2_oenb[15]
*283 la2_oenb[16]
*284 la2_oenb[17]
*285 la2_oenb[18]
*286 la2_oenb[19]
*287 la2_oenb[1]
*288 la2_oenb[20]
*289 la2_oenb[21]
*290 la2_oenb[22]
*291 la2_oenb[23]
*292 la2_oenb[24]
*293 la2_oenb[25]
*294 la2_oenb[26]
*295 la2_oenb[27]
*296 la2_oenb[28]
*297 la2_oenb[29]
*298 la2_oenb[2]
*299 la2_oenb[30]
*300 la2_oenb[31]
*301 la2_oenb[3]
*302 la2_oenb[4]
*303 la2_oenb[5]
*304 la2_oenb[6]
*305 la2_oenb[7]
*306 la2_oenb[8]
*307 la2_oenb[9]
*308 la3_data_in[0]
*309 la3_data_in[10]
*310 la3_data_in[11]
*311 la3_data_in[12]
*312 la3_data_in[13]
*313 la3_data_in[14]
*314 la3_data_in[15]
*315 la3_data_in[16]
*316 la3_data_in[17]
*317 la3_data_in[18]
*318 la3_data_in[19]
*319 la3_data_in[1]
*320 la3_data_in[20]
*321 la3_data_in[21]
*322 la3_data_in[22]
*323 la3_data_in[23]
*324 la3_data_in[24]
*325 la3_data_in[25]
*326 la3_data_in[26]
*327 la3_data_in[27]
*328 la3_data_in[28]
*329 la3_data_in[29]
*330 la3_data_in[2]
*331 la3_data_in[30]
*332 la3_data_in[31]
*333 la3_data_in[3]
*334 la3_data_in[4]
*335 la3_data_in[5]
*336 la3_data_in[6]
*337 la3_data_in[7]
*338 la3_data_in[8]
*339 la3_data_in[9]
*340 la3_data_out[0]
*341 la3_data_out[10]
*342 la3_data_out[11]
*343 la3_data_out[12]
*344 la3_data_out[13]
*345 la3_data_out[14]
*346 la3_data_out[15]
*347 la3_data_out[16]
*348 la3_data_out[17]
*349 la3_data_out[18]
*350 la3_data_out[19]
*351 la3_data_out[1]
*352 la3_data_out[20]
*353 la3_data_out[21]
*354 la3_data_out[22]
*355 la3_data_out[23]
*356 la3_data_out[24]
*357 la3_data_out[25]
*358 la3_data_out[26]
*359 la3_data_out[27]
*360 la3_data_out[28]
*361 la3_data_out[29]
*362 la3_data_out[2]
*363 la3_data_out[30]
*364 la3_data_out[31]
*365 la3_data_out[3]
*366 la3_data_out[4]
*367 la3_data_out[5]
*368 la3_data_out[6]
*369 la3_data_out[7]
*370 la3_data_out[8]
*371 la3_data_out[9]
*372 la3_oenb[0]
*373 la3_oenb[10]
*374 la3_oenb[11]
*375 la3_oenb[12]
*376 la3_oenb[13]
*377 la3_oenb[14]
*378 la3_oenb[15]
*379 la3_oenb[16]
*380 la3_oenb[17]
*381 la3_oenb[18]
*382 la3_oenb[19]
*383 la3_oenb[1]
*384 la3_oenb[20]
*385 la3_oenb[21]
*386 la3_oenb[22]
*387 la3_oenb[23]
*388 la3_oenb[24]
*389 la3_oenb[25]
*390 la3_oenb[26]
*391 la3_oenb[27]
*392 la3_oenb[28]
*393 la3_oenb[29]
*394 la3_oenb[2]
*395 la3_oenb[30]
*396 la3_oenb[31]
*397 la3_oenb[3]
*398 la3_oenb[4]
*399 la3_oenb[5]
*400 la3_oenb[6]
*401 la3_oenb[7]
*402 la3_oenb[8]
*403 la3_oenb[9]
*406 wb_clk_i
*407 _0000_
*408 _0001_
*409 _0002_
*410 _0003_
*411 _0004_
*412 _0005_
*413 _0006_
*414 _0007_
*415 _0008_
*416 _0009_
*417 _0010_
*418 _0011_
*419 _0012_
*420 _0013_
*421 _0014_
*422 _0015_
*423 _0016_
*424 _0017_
*425 _0018_
*426 _0019_
*427 _0020_
*428 _0021_
*429 _0022_
*430 _0023_
*431 _0024_
*432 _0025_
*433 _0026_
*434 _0027_
*435 _0028_
*436 _0029_
*437 _0030_
*438 _0031_
*439 _0032_
*440 _0033_
*441 _0034_
*442 _0035_
*443 _0036_
*444 _0037_
*445 _0038_
*446 _0039_
*447 _0040_
*448 _0041_
*449 _0042_
*450 _0043_
*451 _0044_
*452 _0045_
*453 _0046_
*454 _0047_
*455 _0048_
*456 _0049_
*457 _0050_
*458 _0051_
*459 _0052_
*460 _0053_
*461 _0054_
*462 _0055_
*463 _0056_
*464 _0057_
*465 _0058_
*466 _0059_
*467 _0060_
*468 _0061_
*469 _0062_
*470 _0063_
*471 _0064_
*472 _0065_
*473 _0066_
*474 _0067_
*475 _0068_
*476 _0069_
*477 _0070_
*478 _0071_
*479 _0072_
*480 _0073_
*481 _0074_
*482 _0075_
*483 _0076_
*484 _0077_
*485 _0078_
*486 _0079_
*487 _0080_
*488 _0081_
*489 _0082_
*490 _0083_
*491 _0084_
*492 _0085_
*493 _0086_
*494 _0087_
*495 _0088_
*496 _0089_
*497 _0090_
*498 _0091_
*499 _0092_
*500 _0093_
*501 _0094_
*502 _0095_
*503 _0096_
*504 _0097_
*505 _0098_
*506 _0099_
*507 _0100_
*508 _0101_
*509 _0102_
*510 _0103_
*511 _0104_
*512 _0105_
*513 _0106_
*514 _0107_
*515 _0108_
*516 _0109_
*517 _0110_
*518 _0111_
*519 _0112_
*520 _0113_
*521 _0114_
*522 _0115_
*523 _0116_
*524 _0117_
*525 _0118_
*526 _0119_
*527 _0120_
*528 _0121_
*529 _0122_
*530 _0123_
*531 _0124_
*532 _0125_
*533 _0126_
*534 _0127_
*535 _0128_
*536 _0129_
*537 _0130_
*538 _0131_
*539 _0132_
*540 _0133_
*541 _0134_
*542 _0135_
*543 _0136_
*544 _0137_
*545 _0138_
*546 _0139_
*547 _0140_
*548 _0141_
*549 _0142_
*550 _0143_
*551 _0144_
*552 _0145_
*553 _0146_
*554 _0147_
*555 _0148_
*556 _0149_
*557 _0150_
*558 _0151_
*559 _0152_
*560 _0153_
*561 _0154_
*562 _0155_
*563 _0156_
*564 _0157_
*565 _0158_
*566 _0159_
*567 _0160_
*568 _0161_
*569 _0162_
*570 _0163_
*571 _0164_
*572 _0165_
*573 _0166_
*574 _0167_
*575 _0168_
*576 _0169_
*577 _0170_
*578 _0171_
*579 _0172_
*580 _0173_
*581 _0174_
*582 _0175_
*583 _0176_
*584 _0177_
*585 _0178_
*586 _0179_
*587 _0180_
*588 _0181_
*589 _0182_
*590 _0183_
*591 _0184_
*592 _0185_
*593 _0186_
*594 _0187_
*595 _0188_
*596 _0189_
*597 _0190_
*598 _0191_
*599 _0192_
*600 _0193_
*601 _0194_
*602 _0195_
*603 _0196_
*604 _0197_
*605 _0198_
*606 _0199_
*607 _0200_
*608 _0201_
*609 _0202_
*610 _0203_
*611 _0204_
*612 _0205_
*613 _0206_
*614 _0207_
*615 _0208_
*616 _0209_
*617 _0210_
*618 _0211_
*619 _0212_
*620 _0213_
*621 _0214_
*622 _0215_
*623 _0216_
*624 _0217_
*625 _0218_
*626 _0219_
*627 _0220_
*628 _0221_
*629 _0222_
*630 _0223_
*631 _0224_
*632 _0225_
*633 _0226_
*634 _0227_
*635 _0228_
*636 _0229_
*637 _0230_
*638 _0231_
*639 _0232_
*640 _0233_
*641 _0234_
*642 _0235_
*643 _0236_
*644 _0237_
*645 _0238_
*646 _0239_
*647 _0240_
*648 _0241_
*649 _0242_
*650 _0243_
*651 _0244_
*652 _0245_
*653 _0246_
*654 _0247_
*655 _0248_
*656 _0249_
*657 _0250_
*658 _0251_
*659 _0252_
*660 _0253_
*661 _0254_
*662 _0255_
*663 _0256_
*664 _0257_
*665 _0258_
*666 _0259_
*667 _0260_
*668 _0261_
*669 _0262_
*670 _0263_
*671 _0264_
*672 _0265_
*673 _0266_
*674 _0267_
*675 _0268_
*676 _0269_
*677 _0270_
*678 _0271_
*679 _0272_
*680 _0273_
*681 _0274_
*682 _0275_
*683 _0276_
*684 _0277_
*685 _0278_
*686 _0279_
*687 _0280_
*688 _0281_
*689 _0282_
*690 _0283_
*691 _0284_
*692 _0285_
*693 _0286_
*694 _0287_
*695 _0288_
*696 _0289_
*697 _0290_
*698 _0291_
*699 _0292_
*700 _0293_
*701 _0294_
*702 _0295_
*703 _0296_
*704 _0297_
*705 _0298_
*706 _0299_
*707 _0300_
*708 _0301_
*709 _0302_
*710 _0303_
*711 _0304_
*712 _0305_
*713 _0306_
*714 _0307_
*715 _0308_
*716 _0309_
*717 _0310_
*718 _0311_
*719 _0312_
*720 _0313_
*721 _0314_
*722 _0315_
*723 _0316_
*724 _0317_
*725 _0318_
*726 _0319_
*727 _0320_
*728 _0321_
*729 _0322_
*730 _0323_
*731 _0324_
*732 _0325_
*733 _0326_
*734 _0327_
*735 _0328_
*736 _0329_
*737 _0330_
*738 _0331_
*739 _0332_
*740 _0333_
*741 _0334_
*742 _0335_
*743 _0336_
*744 _0337_
*745 _0338_
*746 _0339_
*747 _0340_
*748 _0341_
*749 _0342_
*750 _0343_
*751 _0344_
*752 _0345_
*753 _0346_
*754 _0347_
*755 _0348_
*756 _0349_
*757 _0350_
*758 _0351_
*759 _0352_
*760 _0353_
*761 _0354_
*762 _0355_
*763 _0356_
*764 _0357_
*765 _0358_
*766 _0359_
*767 _0360_
*768 _0361_
*769 _0362_
*770 _0363_
*771 _0364_
*772 _0365_
*773 _0366_
*774 _0367_
*775 _0368_
*776 _0369_
*777 _0370_
*778 _0371_
*779 _0372_
*780 _0373_
*781 _0374_
*782 _0375_
*783 _0376_
*784 _0377_
*785 _0378_
*786 _0379_
*787 _0380_
*788 _0381_
*789 _0382_
*790 _0383_
*791 _0384_
*792 _0385_
*793 _0386_
*794 _0387_
*795 _0388_
*796 _0389_
*797 _0390_
*798 _0391_
*799 _0392_
*800 _0393_
*801 _0394_
*802 _0395_
*803 _0396_
*804 _0397_
*805 _0398_
*806 _0399_
*807 _0400_
*808 _0401_
*809 _0402_
*810 _0403_
*811 _0404_
*812 _0405_
*813 _0406_
*814 _0407_
*815 _0408_
*816 _0409_
*817 _0410_
*818 _0411_
*819 _0412_
*820 _0413_
*821 _0414_
*822 _0415_
*823 _0416_
*824 _0417_
*825 _0418_
*826 _0419_
*827 _0420_
*828 _0421_
*829 _0422_
*830 _0423_
*831 _0424_
*832 _0425_
*833 _0426_
*834 _0427_
*835 _0428_
*836 _0429_
*837 _0430_
*838 _0431_
*839 _0432_
*840 _0433_
*841 _0434_
*842 _0435_
*843 _0436_
*844 _0437_
*845 _0438_
*846 _0439_
*847 _0440_
*848 _0441_
*849 _0442_
*850 _0443_
*851 _0444_
*852 _0445_
*853 _0446_
*854 _0447_
*855 _0448_
*856 _0449_
*857 _0450_
*858 _0451_
*859 _0452_
*860 _0453_
*861 _0454_
*862 _0455_
*863 _0456_
*864 _0457_
*865 _0458_
*866 _0459_
*867 _0460_
*868 _0461_
*869 _0462_
*870 _0463_
*871 _0464_
*872 _0465_
*873 _0466_
*874 _0467_
*875 _0468_
*876 _0469_
*877 _0470_
*878 _0471_
*879 _0472_
*880 _0473_
*881 _0474_
*882 _0475_
*883 _0476_
*884 _0477_
*885 _0478_
*886 _0479_
*887 _0480_
*888 _0481_
*889 _0482_
*890 _0483_
*891 _0484_
*892 _0485_
*893 _0486_
*894 _0487_
*895 _0488_
*896 _0489_
*897 _0490_
*898 _0491_
*899 _0492_
*900 _0493_
*901 _0494_
*902 _0495_
*903 _0496_
*904 _0497_
*905 _0498_
*906 _0499_
*907 _0500_
*908 _0501_
*909 _0502_
*910 _0503_
*911 _0504_
*912 _0505_
*913 _0506_
*914 _0507_
*915 _0508_
*916 _0509_
*917 _0510_
*918 _0511_
*919 _0512_
*920 _0513_
*921 _0514_
*922 _0515_
*923 _0516_
*924 _0517_
*925 _0518_
*926 _0519_
*927 _0520_
*928 _0521_
*929 _0522_
*930 _0523_
*931 _0524_
*932 _0525_
*933 _0526_
*934 _0527_
*935 _0528_
*936 _0529_
*937 _0530_
*938 _0531_
*939 _0532_
*940 _0533_
*941 _0534_
*942 _0535_
*943 _0536_
*944 _0537_
*945 _0538_
*946 _0539_
*947 _0540_
*948 _0541_
*949 _0542_
*950 _0543_
*951 _0544_
*952 _0545_
*953 _0546_
*954 _0547_
*955 _0548_
*956 _0549_
*957 _0550_
*958 _0551_
*959 _0552_
*960 _0553_
*961 _0554_
*962 _0555_
*963 _0556_
*964 _0557_
*965 _0558_
*966 _0559_
*967 _0560_
*968 _0561_
*969 _0562_
*970 _0563_
*971 _0564_
*972 _0565_
*973 _0566_
*974 _0567_
*975 _0568_
*976 _0569_
*977 _0570_
*978 _0571_
*979 _0572_
*980 _0573_
*981 _0574_
*982 _0575_
*983 _0576_
*984 _0577_
*985 _0578_
*986 _0579_
*987 _0580_
*988 _0581_
*989 _0582_
*990 _0583_
*991 _0584_
*992 _0585_
*993 _0586_
*994 _0587_
*995 _0588_
*996 _0589_
*997 _0590_
*998 _0591_
*999 _0592_
*1000 _0593_
*1001 _0594_
*1002 _0595_
*1003 _0596_
*1004 _0597_
*1005 _0598_
*1006 _0599_
*1007 _0600_
*1008 _0601_
*1009 _0602_
*1010 _0603_
*1011 _0604_
*1012 _0605_
*1013 _0606_
*1014 _0607_
*1015 _0608_
*1016 _0609_
*1017 _0610_
*1018 _0611_
*1019 _0612_
*1020 _0613_
*1021 _0614_
*1022 _0615_
*1023 _0616_
*1024 _0617_
*1025 _0618_
*1026 _0619_
*1027 _0620_
*1028 _0621_
*1029 _0622_
*1030 _0623_
*1031 _0624_
*1032 _0625_
*1033 _0626_
*1034 _0627_
*1035 _0628_
*1036 _0629_
*1037 _0630_
*1038 _0631_
*1039 _0632_
*1040 _0633_
*1041 _0634_
*1042 _0635_
*1043 _0636_
*1044 _0637_
*1045 _0638_
*1046 _0639_
*1047 _0640_
*1048 _0641_
*1049 _0642_
*1050 _0643_
*1051 _0644_
*1052 _0645_
*1053 _0646_
*1054 _0647_
*1055 _0648_
*1056 _0649_
*1057 _0650_
*1058 _0651_
*1059 _0652_
*1060 _0653_
*1061 _0654_
*1062 _0655_
*1063 _0656_
*1064 _0657_
*1065 _0658_
*1066 _0659_
*1067 _0660_
*1068 _0661_
*1069 _0662_
*1070 _0663_
*1071 _0664_
*1072 _0665_
*1073 _0666_
*1074 _0667_
*1075 _0668_
*1076 _0669_
*1077 _0670_
*1078 _0671_
*1079 _0672_
*1080 _0673_
*1081 _0674_
*1082 _0675_
*1083 _0676_
*1084 _0677_
*1085 _0678_
*1086 _0679_
*1087 _0680_
*1088 _0681_
*1089 _0682_
*1090 _0683_
*1091 _0684_
*1092 _0685_
*1093 _0686_
*1094 _0687_
*1095 _0688_
*1096 _0689_
*1097 _0690_
*1098 _0691_
*1099 _0692_
*1100 _0693_
*1101 _0694_
*1102 _0695_
*1103 _0696_
*1104 _0697_
*1105 _0698_
*1106 _0699_
*1107 _0700_
*1108 _0701_
*1109 _0702_
*1110 _0703_
*1111 _0704_
*1112 _0705_
*1113 _0706_
*1114 _0707_
*1115 _0708_
*1116 _0709_
*1117 _0710_
*1118 _0711_
*1119 _0712_
*1120 _0713_
*1121 _0714_
*1122 _0715_
*1123 _0716_
*1124 _0717_
*1125 _0718_
*1126 _0719_
*1127 _0720_
*1128 _0721_
*1129 _0722_
*1130 _0723_
*1131 _0724_
*1132 _0725_
*1133 _0726_
*1134 _0727_
*1135 _0728_
*1136 _0729_
*1137 _0730_
*1138 _0731_
*1139 _0732_
*1140 _0733_
*1141 _0734_
*1142 _0735_
*1143 _0736_
*1144 _0737_
*1145 _0738_
*1146 _0739_
*1147 _0740_
*1148 _0741_
*1149 _0742_
*1150 _0743_
*1151 _0744_
*1152 _0745_
*1153 _0746_
*1154 _0747_
*1155 _0748_
*1156 _0749_
*1157 _0750_
*1158 _0751_
*1159 _0752_
*1160 _0753_
*1161 _0754_
*1162 _0755_
*1163 _0756_
*1164 _0757_
*1165 _0758_
*1166 _0759_
*1167 _0760_
*1168 _0761_
*1169 _0762_
*1170 _0763_
*1171 _0764_
*1172 _0765_
*1173 _0766_
*1174 _0767_
*1175 _0768_
*1176 _0769_
*1177 _0770_
*1178 _0771_
*1179 _0772_
*1180 _0773_
*1181 _0774_
*1182 _0775_
*1183 _0776_
*1184 _0777_
*1185 _0778_
*1186 _0779_
*1187 _0780_
*1188 _0781_
*1189 _0782_
*1190 _0783_
*1191 _0784_
*1192 _0785_
*1193 _0786_
*1194 _0787_
*1195 _0788_
*1196 _0789_
*1197 _0790_
*1198 _0791_
*1199 _0792_
*1200 _0793_
*1201 _0794_
*1202 _0795_
*1203 _0796_
*1204 _0797_
*1205 _0798_
*1206 _0799_
*1207 _0800_
*1208 _0801_
*1209 _0802_
*1210 _0803_
*1211 _0804_
*1212 _0805_
*1213 _0806_
*1214 _0807_
*1215 _0808_
*1216 _0809_
*1217 _0810_
*1218 _0811_
*1219 _0812_
*1220 _0813_
*1221 _0814_
*1222 _0815_
*1223 _0816_
*1224 _0817_
*1225 _0818_
*1226 _0819_
*1227 _0820_
*1228 _0821_
*1229 _0822_
*1230 _0823_
*1231 _0824_
*1232 _0825_
*1233 _0826_
*1234 _0827_
*1235 _0828_
*1236 _0829_
*1237 _0830_
*1238 _0831_
*1239 _0832_
*1240 _0833_
*1241 _0834_
*1242 _0835_
*1243 _0836_
*1244 _0837_
*1245 _0838_
*1246 _0839_
*1247 _0840_
*1248 _0841_
*1249 _0842_
*1250 _0843_
*1251 _0844_
*1252 _0845_
*1253 _0846_
*1254 _0847_
*1255 _0848_
*1256 _0849_
*1257 _0850_
*1258 _0851_
*1259 _0852_
*1260 _0853_
*1261 _0854_
*1262 _0855_
*1263 _0856_
*1264 _0857_
*1265 _0858_
*1266 _0859_
*1267 _0860_
*1268 _0861_
*1269 _0862_
*1270 _0863_
*1271 _0864_
*1272 _0865_
*1273 _0866_
*1274 _0867_
*1275 _0868_
*1276 _0869_
*1277 _0870_
*1278 _0871_
*1279 _0872_
*1280 _0873_
*1281 _0874_
*1282 _0875_
*1283 _0876_
*1284 _0877_
*1285 _0878_
*1286 _0879_
*1287 _0880_
*1288 _0881_
*1289 _0882_
*1290 _0883_
*1291 _0884_
*1292 _0885_
*1293 _0886_
*1294 _0887_
*1295 _0888_
*1296 _0889_
*1297 _0890_
*1298 _0891_
*1299 _0892_
*1300 _0893_
*1301 _0894_
*1302 _0895_
*1303 _0896_
*1304 _0897_
*1305 _0898_
*1306 _0899_
*1307 _0900_
*1308 _0901_
*1309 _0902_
*1310 _0903_
*1311 _0904_
*1312 _0905_
*1313 _0906_
*1314 _0907_
*1315 _0908_
*1316 _0909_
*1317 _0910_
*1318 _0911_
*1319 _0912_
*1320 _0913_
*1321 _0914_
*1322 _0915_
*1323 _0916_
*1324 _0917_
*1325 _0918_
*1326 _0919_
*1327 _0920_
*1328 _0921_
*1329 _0922_
*1330 _0923_
*1331 _0924_
*1332 _0925_
*1333 _0926_
*1334 _0927_
*1335 _0928_
*1336 _0929_
*1337 _0930_
*1338 _0931_
*1339 _0932_
*1340 _0933_
*1341 _0934_
*1342 _0935_
*1343 _0936_
*1344 _0937_
*1345 _0938_
*1346 _0939_
*1347 _0940_
*1348 _0941_
*1349 _0942_
*1350 _0943_
*1351 _0944_
*1352 _0945_
*1353 _0946_
*1354 _0947_
*1355 _0948_
*1356 _0949_
*1357 _0950_
*1358 _0951_
*1359 _0952_
*1360 _0953_
*1361 _0954_
*1362 _0955_
*1363 _0956_
*1364 _0957_
*1365 _0958_
*1366 _0959_
*1367 _0960_
*1368 _0961_
*1369 _0962_
*1370 _0963_
*1371 _0964_
*1372 _0965_
*1373 _0966_
*1374 _0967_
*1375 _0968_
*1376 _0969_
*1377 _0970_
*1378 _0971_
*1379 _0972_
*1380 _0973_
*1381 _0974_
*1382 _0975_
*1383 _0976_
*1384 _0977_
*1385 _0978_
*1386 _0979_
*1387 _0980_
*1388 _0981_
*1389 _0982_
*1390 _0983_
*1391 _0984_
*1392 _0985_
*1393 _0986_
*1394 _0987_
*1395 _0988_
*1396 _0989_
*1397 _0990_
*1398 _0991_
*1399 _0992_
*1400 _0993_
*1401 _0994_
*1402 _0995_
*1403 _0996_
*1404 _0997_
*1405 _0998_
*1406 _0999_
*1407 _1000_
*1408 _1001_
*1409 _1002_
*1410 _1003_
*1411 _1004_
*1412 _1005_
*1413 _1006_
*1414 _1007_
*1415 _1008_
*1416 _1009_
*1417 _1010_
*1418 _1011_
*1419 _1012_
*1420 _1013_
*1421 _1014_
*1422 _1015_
*1423 _1016_
*1424 _1017_
*1425 _1018_
*1426 _1019_
*1427 _1020_
*1428 _1021_
*1429 _1022_
*1430 _1023_
*1431 _1024_
*1432 _1025_
*1433 _1026_
*1434 _1027_
*1435 _1028_
*1436 _1029_
*1437 _1030_
*1438 _1031_
*1439 _1032_
*1440 _1033_
*1441 _1034_
*1442 _1035_
*1443 _1036_
*1444 _1037_
*1445 _1038_
*1446 _1039_
*1447 _1040_
*1448 _1041_
*1449 _1042_
*1450 _1043_
*1451 _1044_
*1452 _1045_
*1453 _1046_
*1454 _1047_
*1455 _1048_
*1456 _1049_
*1457 _1050_
*1458 _1051_
*1459 _1052_
*1460 _1053_
*1461 _1054_
*1462 _1055_
*1463 _1056_
*1464 _1057_
*1465 _1058_
*1466 _1059_
*1467 _1060_
*1468 _1061_
*1469 _1062_
*1470 _1063_
*1471 _1064_
*1472 _1065_
*1473 _1066_
*1474 _1067_
*1475 _1068_
*1476 _1069_
*1477 _1070_
*1478 _1071_
*1479 _1072_
*1480 _1073_
*1481 _1074_
*1482 _1075_
*1483 _1076_
*1484 _1077_
*1485 _1078_
*1486 _1079_
*1487 _1080_
*1488 _1081_
*1489 _1082_
*1490 _1083_
*1491 _1084_
*1492 _1085_
*1493 _1086_
*1494 _1087_
*1495 _1088_
*1496 _1089_
*1497 _1090_
*1498 _1091_
*1499 _1092_
*1500 _1093_
*1501 _1094_
*1502 _1095_
*1503 _1096_
*1504 _1097_
*1505 _1098_
*1506 _1099_
*1507 _1100_
*1508 _1101_
*1509 _1102_
*1510 _1103_
*1511 _1104_
*1512 _1105_
*1513 _1106_
*1514 _1107_
*1515 _1108_
*1516 _1109_
*1517 _1110_
*1518 _1111_
*1519 _1112_
*1520 _1113_
*1521 _1114_
*1522 _1115_
*1523 _1116_
*1524 _1117_
*1525 _1118_
*1526 _1119_
*1527 _1120_
*1528 _1121_
*1529 _1122_
*1530 _1123_
*1531 _1124_
*1532 _1125_
*1533 _1126_
*1534 _1127_
*1535 _1128_
*1536 _1129_
*1537 _1130_
*1538 _1131_
*1539 _1132_
*1540 _1133_
*1541 _1134_
*1542 _1135_
*1543 _1136_
*1544 _1137_
*1545 _1138_
*1546 _1139_
*1547 _1140_
*1548 _1141_
*1549 _1142_
*1550 _1143_
*1551 _1144_
*1552 _1145_
*1553 _1146_
*1554 _1147_
*1555 _1148_
*1556 _1149_
*1557 _1150_
*1558 _1151_
*1559 _1152_
*1560 _1153_
*1561 _1154_
*1562 _1155_
*1563 _1156_
*1564 _1157_
*1565 _1158_
*1566 _1159_
*1567 _1160_
*1568 _1161_
*1569 _1162_
*1570 _1163_
*1571 _1164_
*1572 _1165_
*1573 _1166_
*1574 _1167_
*1575 _1168_
*1576 _1169_
*1577 _1170_
*1578 _1171_
*1579 _1172_
*1580 _1173_
*1581 _1174_
*1582 _1175_
*1583 _1176_
*1584 _1177_
*1585 _1178_
*1586 _1179_
*1587 _1180_
*1588 _1181_
*1589 _1182_
*1590 _1183_
*1591 _1184_
*1592 _1185_
*1593 _1186_
*1594 _1187_
*1595 _1188_
*1596 _1189_
*1597 _1190_
*1598 _1191_
*1599 _1192_
*1600 _1193_
*1601 _1194_
*1602 _1195_
*1603 _1196_
*1604 _1197_
*1605 _1198_
*1606 _1199_
*1607 _1200_
*1608 _1201_
*1609 _1202_
*1610 _1203_
*1611 _1204_
*1612 _1205_
*1613 _1206_
*1614 _1207_
*1615 _1208_
*1616 _1209_
*1617 _1210_
*1618 _1211_
*1619 _1212_
*1620 _1213_
*1621 _1214_
*1622 _1215_
*1623 _1216_
*1624 _1217_
*1625 _1218_
*1626 _1219_
*1627 _1220_
*1628 _1221_
*1629 _1222_
*1630 _1223_
*1631 _1224_
*1632 _1225_
*1633 _1226_
*1634 _1227_
*1635 _1228_
*1636 _1229_
*1637 _1230_
*1638 _1231_
*1639 _1232_
*1640 _1233_
*1641 _1234_
*1642 _1235_
*1643 _1236_
*1644 _1237_
*1645 _1238_
*1646 _1239_
*1647 _1240_
*1648 _1241_
*1649 _1242_
*1650 _1243_
*1651 _1244_
*1652 _1245_
*1653 _1246_
*1654 _1247_
*1655 _1248_
*1656 _1249_
*1657 _1250_
*1658 _1251_
*1659 _1252_
*1660 _1253_
*1661 _1254_
*1662 _1255_
*1663 _1256_
*1664 _1257_
*1665 _1258_
*1666 _1259_
*1667 _1260_
*1668 _1261_
*1669 _1262_
*1670 _1263_
*1671 _1264_
*1672 _1265_
*1673 _1266_
*1674 _1267_
*1675 _1268_
*1676 _1269_
*1677 _1270_
*1678 _1271_
*1679 _1272_
*1680 _1273_
*1681 _1274_
*1682 _1275_
*1683 _1276_
*1684 _1277_
*1685 _1278_
*1686 _1279_
*1687 _1280_
*1688 _1281_
*1689 _1282_
*1690 _1283_
*1691 _1284_
*1692 _1285_
*1693 _1286_
*1694 _1287_
*1695 _1288_
*1696 _1289_
*1697 _1290_
*1698 _1291_
*1699 _1292_
*1700 _1293_
*1701 _1294_
*1702 _1295_
*1703 _1296_
*1704 _1297_
*1705 _1298_
*1706 _1299_
*1707 _1300_
*1708 _1301_
*1709 _1302_
*1710 _1303_
*1711 _1304_
*1712 _1305_
*1713 _1306_
*1714 _1307_
*1715 _1308_
*1716 _1309_
*1717 _1310_
*1718 _1311_
*1719 _1312_
*1720 _1313_
*1721 _1314_
*1722 _1315_
*1723 _1316_
*1724 _1317_
*1725 _1318_
*1726 _1319_
*1727 _1320_
*1728 _1321_
*1729 _1322_
*1730 _1323_
*1731 _1324_
*1732 _1325_
*1733 _1326_
*1734 _1327_
*1735 _1328_
*1736 _1329_
*1737 _1330_
*1738 _1331_
*1739 _1332_
*1740 _1333_
*1741 _1334_
*1742 _1335_
*1743 _1336_
*1744 _1337_
*1745 _1338_
*1746 _1339_
*1747 _1340_
*1748 _1341_
*1749 _1342_
*1750 _1343_
*1751 _1344_
*1752 _1345_
*1753 _1346_
*1754 _1347_
*1755 _1348_
*1756 _1349_
*1757 _1350_
*1758 _1351_
*1759 _1352_
*1760 _1353_
*1761 _1354_
*1762 _1355_
*1763 _1356_
*1764 _1357_
*1765 _1358_
*1766 _1359_
*1767 _1360_
*1768 _1361_
*1769 _1362_
*1770 _1363_
*1771 _1364_
*1772 _1365_
*1773 _1366_
*1774 _1367_
*1775 _1368_
*1776 _1369_
*1777 _1370_
*1778 _1371_
*1779 _1372_
*1780 _1373_
*1781 _1374_
*1782 _1375_
*1783 _1376_
*1784 _1377_
*1785 _1378_
*1786 _1379_
*1787 _1380_
*1788 _1381_
*1789 _1382_
*1790 _1383_
*1791 _1384_
*1792 _1385_
*1793 _1386_
*1794 _1387_
*1795 _1388_
*1796 _1389_
*1797 _1390_
*1798 _1391_
*1799 _1392_
*1800 _1393_
*1801 _1394_
*1802 _1395_
*1803 _1396_
*1804 _1397_
*1805 _1398_
*1806 _1399_
*1807 _1400_
*1808 _1401_
*1809 _1402_
*1810 _1403_
*1811 _1404_
*1812 _1405_
*1813 _1406_
*1814 _1407_
*1815 _1408_
*1816 _1409_
*1817 _1410_
*1818 _1411_
*1819 _1412_
*1820 _1413_
*1821 _1414_
*1822 _1415_
*1823 _1416_
*1824 _1417_
*1825 _1418_
*1826 _1419_
*1827 _1420_
*1828 _1421_
*1829 _1422_
*1830 _1423_
*1831 _1424_
*1832 _1425_
*1833 buf_la3_data_out\[0\]
*1834 buf_la3_data_out\[10\]
*1835 buf_la3_data_out\[11\]
*1836 buf_la3_data_out\[12\]
*1837 buf_la3_data_out\[13\]
*1838 buf_la3_data_out\[14\]
*1839 buf_la3_data_out\[15\]
*1840 buf_la3_data_out\[16\]
*1841 buf_la3_data_out\[17\]
*1842 buf_la3_data_out\[18\]
*1843 buf_la3_data_out\[19\]
*1844 buf_la3_data_out\[1\]
*1845 buf_la3_data_out\[20\]
*1846 buf_la3_data_out\[21\]
*1847 buf_la3_data_out\[22\]
*1848 buf_la3_data_out\[23\]
*1849 buf_la3_data_out\[24\]
*1850 buf_la3_data_out\[25\]
*1851 buf_la3_data_out\[26\]
*1852 buf_la3_data_out\[27\]
*1853 buf_la3_data_out\[28\]
*1854 buf_la3_data_out\[29\]
*1855 buf_la3_data_out\[2\]
*1856 buf_la3_data_out\[30\]
*1857 buf_la3_data_out\[31\]
*1858 buf_la3_data_out\[3\]
*1859 buf_la3_data_out\[4\]
*1860 buf_la3_data_out\[5\]
*1861 buf_la3_data_out\[6\]
*1862 buf_la3_data_out\[7\]
*1863 buf_la3_data_out\[8\]
*1864 buf_la3_data_out\[9\]
*1865 clknet_0_wb_clk_i
*1866 clknet_1_0_0_wb_clk_i
*1867 clknet_1_1_0_wb_clk_i
*1868 clknet_2_0_0_wb_clk_i
*1869 clknet_2_1_0_wb_clk_i
*1870 clknet_2_2_0_wb_clk_i
*1871 clknet_2_3_0_wb_clk_i
*1872 clknet_3_0_0_wb_clk_i
*1873 clknet_3_1_0_wb_clk_i
*1874 clknet_3_2_0_wb_clk_i
*1875 clknet_3_3_0_wb_clk_i
*1876 clknet_3_4_0_wb_clk_i
*1877 clknet_3_5_0_wb_clk_i
*1878 clknet_3_6_0_wb_clk_i
*1879 clknet_3_7_0_wb_clk_i
*1880 clknet_4_0_0_wb_clk_i
*1881 clknet_4_10_0_wb_clk_i
*1882 clknet_4_11_0_wb_clk_i
*1883 clknet_4_12_0_wb_clk_i
*1884 clknet_4_13_0_wb_clk_i
*1885 clknet_4_14_0_wb_clk_i
*1886 clknet_4_15_0_wb_clk_i
*1887 clknet_4_1_0_wb_clk_i
*1888 clknet_4_2_0_wb_clk_i
*1889 clknet_4_3_0_wb_clk_i
*1890 clknet_4_4_0_wb_clk_i
*1891 clknet_4_5_0_wb_clk_i
*1892 clknet_4_6_0_wb_clk_i
*1893 clknet_4_7_0_wb_clk_i
*1894 clknet_4_8_0_wb_clk_i
*1895 clknet_4_9_0_wb_clk_i
*1896 instrumented_adder\.a_input_ext_bit_b\[0\]
*1897 instrumented_adder\.a_input_ext_bit_b\[10\]
*1898 instrumented_adder\.a_input_ext_bit_b\[11\]
*1899 instrumented_adder\.a_input_ext_bit_b\[12\]
*1900 instrumented_adder\.a_input_ext_bit_b\[13\]
*1901 instrumented_adder\.a_input_ext_bit_b\[14\]
*1902 instrumented_adder\.a_input_ext_bit_b\[15\]
*1903 instrumented_adder\.a_input_ext_bit_b\[16\]
*1904 instrumented_adder\.a_input_ext_bit_b\[17\]
*1905 instrumented_adder\.a_input_ext_bit_b\[18\]
*1906 instrumented_adder\.a_input_ext_bit_b\[19\]
*1907 instrumented_adder\.a_input_ext_bit_b\[1\]
*1908 instrumented_adder\.a_input_ext_bit_b\[20\]
*1909 instrumented_adder\.a_input_ext_bit_b\[21\]
*1910 instrumented_adder\.a_input_ext_bit_b\[22\]
*1911 instrumented_adder\.a_input_ext_bit_b\[23\]
*1912 instrumented_adder\.a_input_ext_bit_b\[24\]
*1913 instrumented_adder\.a_input_ext_bit_b\[25\]
*1914 instrumented_adder\.a_input_ext_bit_b\[26\]
*1915 instrumented_adder\.a_input_ext_bit_b\[27\]
*1916 instrumented_adder\.a_input_ext_bit_b\[28\]
*1917 instrumented_adder\.a_input_ext_bit_b\[29\]
*1918 instrumented_adder\.a_input_ext_bit_b\[2\]
*1919 instrumented_adder\.a_input_ext_bit_b\[30\]
*1920 instrumented_adder\.a_input_ext_bit_b\[31\]
*1921 instrumented_adder\.a_input_ext_bit_b\[3\]
*1922 instrumented_adder\.a_input_ext_bit_b\[4\]
*1923 instrumented_adder\.a_input_ext_bit_b\[5\]
*1924 instrumented_adder\.a_input_ext_bit_b\[6\]
*1925 instrumented_adder\.a_input_ext_bit_b\[7\]
*1926 instrumented_adder\.a_input_ext_bit_b\[8\]
*1927 instrumented_adder\.a_input_ext_bit_b\[9\]
*1928 instrumented_adder\.adder_b\[0\]
*1929 instrumented_adder\.adder_b\[10\]
*1930 instrumented_adder\.adder_b\[11\]
*1931 instrumented_adder\.adder_b\[12\]
*1932 instrumented_adder\.adder_b\[13\]
*1933 instrumented_adder\.adder_b\[14\]
*1934 instrumented_adder\.adder_b\[15\]
*1935 instrumented_adder\.adder_b\[16\]
*1936 instrumented_adder\.adder_b\[17\]
*1937 instrumented_adder\.adder_b\[18\]
*1938 instrumented_adder\.adder_b\[19\]
*1939 instrumented_adder\.adder_b\[1\]
*1940 instrumented_adder\.adder_b\[20\]
*1941 instrumented_adder\.adder_b\[21\]
*1942 instrumented_adder\.adder_b\[22\]
*1943 instrumented_adder\.adder_b\[23\]
*1944 instrumented_adder\.adder_b\[24\]
*1945 instrumented_adder\.adder_b\[25\]
*1946 instrumented_adder\.adder_b\[26\]
*1947 instrumented_adder\.adder_b\[27\]
*1948 instrumented_adder\.adder_b\[28\]
*1949 instrumented_adder\.adder_b\[29\]
*1950 instrumented_adder\.adder_b\[2\]