*SPEF "ieee 1481-1999"
*DESIGN "wrapped_PrimitiveCalculator"
*DATE "11:11:11 Fri 11 11, 1111"
*VENDOR "OpenRCX"
*PROGRAM "Parallel Extraction"
*VERSION "1.0"
*DESIGN_FLOW "NAME_SCOPE LOCAL" "PIN_CAP NONE"
*DIVIDER /
*DELIMITER :
*BUS_DELIMITER []
*T_UNIT 1 NS
*C_UNIT 1 PF
*R_UNIT 1 OHM
*L_UNIT 1 HENRY

*NAME_MAP
*1 active
*2 io_in[0]
*3 io_in[10]
*4 io_in[11]
*5 io_in[12]
*6 io_in[13]
*7 io_in[14]
*8 io_in[15]
*9 io_in[16]
*10 io_in[17]
*11 io_in[18]
*12 io_in[19]
*13 io_in[1]
*14 io_in[20]
*15 io_in[21]
*16 io_in[22]
*17 io_in[23]
*18 io_in[24]
*19 io_in[25]
*20 io_in[26]
*21 io_in[27]
*22 io_in[28]
*23 io_in[29]
*24 io_in[2]
*25 io_in[30]
*26 io_in[31]
*27 io_in[32]
*28 io_in[33]
*29 io_in[34]
*30 io_in[35]
*31 io_in[36]
*32 io_in[37]
*33 io_in[3]
*34 io_in[4]
*35 io_in[5]
*36 io_in[6]
*37 io_in[7]
*38 io_in[8]
*39 io_in[9]
*40 io_oeb[0]
*41 io_oeb[10]
*42 io_oeb[11]
*43 io_oeb[12]
*44 io_oeb[13]
*45 io_oeb[14]
*46 io_oeb[15]
*47 io_oeb[16]
*48 io_oeb[17]
*49 io_oeb[18]
*50 io_oeb[19]
*51 io_oeb[1]
*52 io_oeb[20]
*53 io_oeb[21]
*54 io_oeb[22]
*55 io_oeb[23]
*56 io_oeb[24]
*57 io_oeb[25]
*58 io_oeb[26]
*59 io_oeb[27]
*60 io_oeb[28]
*61 io_oeb[29]
*62 io_oeb[2]
*63 io_oeb[30]
*64 io_oeb[31]
*65 io_oeb[32]
*66 io_oeb[33]
*67 io_oeb[34]
*68 io_oeb[35]
*69 io_oeb[36]
*70 io_oeb[37]
*71 io_oeb[3]
*72 io_oeb[4]
*73 io_oeb[5]
*74 io_oeb[6]
*75 io_oeb[7]
*76 io_oeb[8]
*77 io_oeb[9]
*78 io_out[0]
*79 io_out[10]
*80 io_out[11]
*81 io_out[12]
*82 io_out[13]
*83 io_out[14]
*84 io_out[15]
*85 io_out[16]
*86 io_out[17]
*87 io_out[18]
*88 io_out[19]
*89 io_out[1]
*90 io_out[20]
*91 io_out[21]
*92 io_out[22]
*93 io_out[23]
*94 io_out[24]
*95 io_out[25]
*96 io_out[26]
*97 io_out[27]
*98 io_out[28]
*99 io_out[29]
*100 io_out[2]
*101 io_out[30]
*102 io_out[31]
*103 io_out[32]
*104 io_out[33]
*105 io_out[34]
*106 io_out[35]
*107 io_out[36]
*108 io_out[37]
*109 io_out[3]
*110 io_out[4]
*111 io_out[5]
*112 io_out[6]
*113 io_out[7]
*114 io_out[8]
*115 io_out[9]
*116 la1_data_in[0]
*117 la1_data_in[10]
*118 la1_data_in[11]
*119 la1_data_in[12]
*120 la1_data_in[13]
*121 la1_data_in[14]
*122 la1_data_in[15]
*123 la1_data_in[16]
*124 la1_data_in[17]
*125 la1_data_in[18]
*126 la1_data_in[19]
*127 la1_data_in[1]
*128 la1_data_in[20]
*129 la1_data_in[21]
*130 la1_data_in[22]
*131 la1_data_in[23]
*132 la1_data_in[24]
*133 la1_data_in[25]
*134 la1_data_in[26]
*135 la1_data_in[27]
*136 la1_data_in[28]
*137 la1_data_in[29]
*138 la1_data_in[2]
*139 la1_data_in[30]
*140 la1_data_in[31]
*141 la1_data_in[3]
*142 la1_data_in[4]
*143 la1_data_in[5]
*144 la1_data_in[6]
*145 la1_data_in[7]
*146 la1_data_in[8]
*147 la1_data_in[9]
*148 la1_data_out[0]
*149 la1_data_out[10]
*150 la1_data_out[11]
*151 la1_data_out[12]
*152 la1_data_out[13]
*153 la1_data_out[14]
*154 la1_data_out[15]
*155 la1_data_out[16]
*156 la1_data_out[17]
*157 la1_data_out[18]
*158 la1_data_out[19]
*159 la1_data_out[1]
*160 la1_data_out[20]
*161 la1_data_out[21]
*162 la1_data_out[22]
*163 la1_data_out[23]
*164 la1_data_out[24]
*165 la1_data_out[25]
*166 la1_data_out[26]
*167 la1_data_out[27]
*168 la1_data_out[28]
*169 la1_data_out[29]
*170 la1_data_out[2]
*171 la1_data_out[30]
*172 la1_data_out[31]
*173 la1_data_out[3]
*174 la1_data_out[4]
*175 la1_data_out[5]
*176 la1_data_out[6]
*177 la1_data_out[7]
*178 la1_data_out[8]
*179 la1_data_out[9]
*180 la1_oenb[0]
*181 la1_oenb[10]
*182 la1_oenb[11]
*183 la1_oenb[12]
*184 la1_oenb[13]
*185 la1_oenb[14]
*186 la1_oenb[15]
*187 la1_oenb[16]
*188 la1_oenb[17]
*189 la1_oenb[18]
*190 la1_oenb[19]
*191 la1_oenb[1]
*192 la1_oenb[20]
*193 la1_oenb[21]
*194 la1_oenb[22]
*195 la1_oenb[23]
*196 la1_oenb[24]
*197 la1_oenb[25]
*198 la1_oenb[26]
*199 la1_oenb[27]
*200 la1_oenb[28]
*201 la1_oenb[29]
*202 la1_oenb[2]
*203 la1_oenb[30]
*204 la1_oenb[31]
*205 la1_oenb[3]
*206 la1_oenb[4]
*207 la1_oenb[5]
*208 la1_oenb[6]
*209 la1_oenb[7]
*210 la1_oenb[8]
*211 la1_oenb[9]
*214 wb_clk_i
*215 PrimitiveCalculator\.alu\.flag
*216 PrimitiveCalculator\.alu\.in_a\[0\]
*217 PrimitiveCalculator\.alu\.in_a\[1\]
*218 PrimitiveCalculator\.alu\.in_a\[2\]
*219 PrimitiveCalculator\.alu\.in_a\[3\]
*220 PrimitiveCalculator\.alu\.in_a\[4\]
*221 PrimitiveCalculator\.alu\.in_a\[5\]
*222 PrimitiveCalculator\.alu\.in_a\[6\]
*223 PrimitiveCalculator\.alu\.in_a\[7\]
*224 PrimitiveCalculator\.alu\.in_b\[0\]
*225 PrimitiveCalculator\.alu\.in_b\[1\]
*226 PrimitiveCalculator\.alu\.in_b\[2\]
*227 PrimitiveCalculator\.alu\.in_b\[3\]
*228 PrimitiveCalculator\.alu\.in_b\[4\]
*229 PrimitiveCalculator\.alu\.in_b\[5\]
*230 PrimitiveCalculator\.alu\.in_b\[6\]
*231 PrimitiveCalculator\.alu\.in_b\[7\]
*232 PrimitiveCalculator\.alu\.load
*233 PrimitiveCalculator\.alu\.out\[0\]
*234 PrimitiveCalculator\.alu\.out\[1\]
*235 PrimitiveCalculator\.alu\.out\[2\]
*236 PrimitiveCalculator\.alu\.out\[3\]
*237 PrimitiveCalculator\.alu\.out\[4\]
*238 PrimitiveCalculator\.alu\.out\[5\]
*239 PrimitiveCalculator\.alu\.out\[6\]
*240 PrimitiveCalculator\.alu\.out\[7\]
*241 PrimitiveCalculator\.alu\.select\[0\]
*242 PrimitiveCalculator\.alu\.select\[1\]
*243 PrimitiveCalculator\.alu\.select\[2\]
*244 PrimitiveCalculator\.current_state\[0\]
*245 PrimitiveCalculator\.current_state\[1\]
*246 PrimitiveCalculator\.current_state\[2\]
*247 PrimitiveCalculator\.debouncer_rotary_a\.out
*248 PrimitiveCalculator\.debouncer_rotary_a\.shift_reg\[0\]
*249 PrimitiveCalculator\.debouncer_rotary_a\.shift_reg\[1\]
*250 PrimitiveCalculator\.debouncer_rotary_a\.shift_reg\[2\]
*251 PrimitiveCalculator\.debouncer_rotary_a\.shift_reg\[3\]
*252 PrimitiveCalculator\.debouncer_rotary_a\.shift_reg\[4\]
*253 PrimitiveCalculator\.debouncer_rotary_a\.shift_reg\[5\]
*254 PrimitiveCalculator\.debouncer_rotary_a\.shift_reg\[6\]
*255 PrimitiveCalculator\.debouncer_rotary_a\.shift_reg\[7\]
*256 PrimitiveCalculator\.debouncer_rotary_b\.out
*257 PrimitiveCalculator\.debouncer_rotary_b\.shift_reg\[0\]
*258 PrimitiveCalculator\.debouncer_rotary_b\.shift_reg\[1\]
*259 PrimitiveCalculator\.debouncer_rotary_b\.shift_reg\[2\]
*260 PrimitiveCalculator\.debouncer_rotary_b\.shift_reg\[3\]
*261 PrimitiveCalculator\.debouncer_rotary_b\.shift_reg\[4\]
*262 PrimitiveCalculator\.debouncer_rotary_b\.shift_reg\[5\]
*263 PrimitiveCalculator\.debouncer_rotary_b\.shift_reg\[6\]
*264 PrimitiveCalculator\.debouncer_rotary_b\.shift_reg\[7\]
*265 PrimitiveCalculator\.debouncer_rotary_restart\.out
*266 PrimitiveCalculator\.debouncer_rotary_restart\.shift_reg\[0\]
*267 PrimitiveCalculator\.debouncer_rotary_restart\.shift_reg\[1\]
*268 PrimitiveCalculator\.debouncer_rotary_restart\.shift_reg\[2\]
*269 PrimitiveCalculator\.debouncer_rotary_restart\.shift_reg\[3\]
*270 PrimitiveCalculator\.debouncer_rotary_restart\.shift_reg\[4\]
*271 PrimitiveCalculator\.debouncer_rotary_restart\.shift_reg\[5\]
*272 PrimitiveCalculator\.debouncer_rotary_restart\.shift_reg\[6\]
*273 PrimitiveCalculator\.debouncer_rotary_restart\.shift_reg\[7\]
*274 PrimitiveCalculator\.debouncer_rotary_select\.out
*275 PrimitiveCalculator\.debouncer_rotary_select\.shift_reg\[0\]
*276 PrimitiveCalculator\.debouncer_rotary_select\.shift_reg\[1\]
*277 PrimitiveCalculator\.debouncer_rotary_select\.shift_reg\[2\]
*278 PrimitiveCalculator\.debouncer_rotary_select\.shift_reg\[3\]
*279 PrimitiveCalculator\.debouncer_rotary_select\.shift_reg\[4\]
*280 PrimitiveCalculator\.debouncer_rotary_select\.shift_reg\[5\]
*281 PrimitiveCalculator\.debouncer_rotary_select\.shift_reg\[6\]
*282 PrimitiveCalculator\.debouncer_rotary_select\.shift_reg\[7\]
*283 PrimitiveCalculator\.led_flag
*284 PrimitiveCalculator\.next_state\[0\]
*285 PrimitiveCalculator\.next_state\[1\]
*286 PrimitiveCalculator\.next_state\[2\]
*287 PrimitiveCalculator\.rotary_encoder\.a_d1
*288 PrimitiveCalculator\.rotary_encoder\.b_d1
*289 PrimitiveCalculator\.rotary_encoder\.out\[0\]
*290 PrimitiveCalculator\.rotary_encoder\.out\[1\]
*291 PrimitiveCalculator\.rotary_encoder\.out\[2\]
*292 PrimitiveCalculator\.rotary_encoder\.out\[3\]
*293 PrimitiveCalculator\.rotary_encoder\.out\[4\]
*294 PrimitiveCalculator\.rotary_encoder\.out\[5\]
*295 PrimitiveCalculator\.rotary_encoder\.out\[6\]
*296 PrimitiveCalculator\.rotary_encoder\.out\[7\]
*297 PrimitiveCalculator\.select_d1
*298 PrimitiveCalculator\.seven_segment\.digit
*299 PrimitiveCalculator\.seven_segment\.display_out\[0\]
*300 PrimitiveCalculator\.seven_segment\.display_out\[1\]
*301 PrimitiveCalculator\.seven_segment\.display_out\[2\]
*302 PrimitiveCalculator\.seven_segment\.display_out\[3\]
*303 PrimitiveCalculator\.seven_segment\.display_out\[4\]
*304 PrimitiveCalculator\.seven_segment\.display_out\[5\]
*305 PrimitiveCalculator\.seven_segment\.display_out\[6\]
*306 PrimitiveCalculator\.seven_segment\.load
*307 PrimitiveCalculator\.seven_segment\.tens\[0\]
*308 PrimitiveCalculator\.seven_segment\.tens\[1\]
*309 PrimitiveCalculator\.seven_segment\.tens\[2\]
*310 PrimitiveCalculator\.seven_segment\.tens\[3\]
*311 PrimitiveCalculator\.seven_segment\.tens_r\[0\]
*312 PrimitiveCalculator\.seven_segment\.tens_r\[1\]
*313 PrimitiveCalculator\.seven_segment\.tens_r\[2\]
*314 PrimitiveCalculator\.seven_segment\.tens_r\[3\]
*315 PrimitiveCalculator\.seven_segment\.units\[0\]
*316 PrimitiveCalculator\.seven_segment\.units\[1\]
*317 PrimitiveCalculator\.seven_segment\.units\[2\]
*318 PrimitiveCalculator\.seven_segment\.units\[3\]
*319 PrimitiveCalculator\.seven_segment\.units_r\[0\]
*320 PrimitiveCalculator\.seven_segment\.units_r\[1\]
*321 PrimitiveCalculator\.seven_segment\.units_r\[2\]
*322 PrimitiveCalculator\.seven_segment\.units_r\[3\]
*323 _0000_
*324 _0001_
*325 _0002_
*326 _0003_
*327 _0004_
*328 _0005_
*329 _0006_
*330 _0007_
*331 _0008_
*332 _0009_
*333 _0010_
*334 _0011_
*335 _0012_
*336 _0013_
*337 _0014_
*338 _0015_
*339 _0016_
*340 _0017_
*341 _0018_
*342 _0019_
*343 _0020_
*344 _0021_
*345 _0022_
*346 _0023_
*347 _0024_
*348 _0025_
*349 _0026_
*350 _0027_
*351 _0028_
*352 _0029_
*353 _0030_
*354 _0031_
*355 _0032_
*356 _0033_
*357 _0034_
*358 _0035_
*359 _0036_
*360 _0037_
*361 _0038_
*362 _0039_
*363 _0040_
*364 _0041_
*365 _0042_
*366 _0043_
*367 _0044_
*368 _0045_
*369 _0046_
*370 _0047_
*371 _0048_
*372 _0049_
*373 _0050_
*374 _0051_
*375 _0052_
*376 _0053_
*377 _0054_
*378 _0055_
*379 _0056_
*380 _0057_
*381 _0058_
*382 _0059_
*383 _0060_
*384 _0061_
*385 _0062_
*386 _0063_
*387 _0064_
*388 _0065_
*389 _0066_
*390 _0067_
*391 _0068_
*392 _0069_
*393 _0070_
*394 _0071_
*395 _0072_
*396 _0073_
*397 _0074_
*398 _0075_
*399 _0076_
*400 _0077_
*401 _0078_
*402 _0079_
*403 _0080_
*404 _0081_
*405 _0082_
*406 _0083_
*407 _0084_
*408 _0085_
*409 _0086_
*410 _0087_
*411 _0088_
*412 _0089_
*413 _0090_
*414 _0091_
*415 _0092_
*416 _0093_
*417 _0094_
*418 _0095_
*419 _0096_
*420 _0097_
*421 _0098_
*422 _0099_
*423 _0100_
*424 _0101_
*425 _0102_
*426 _0103_
*427 _0104_
*428 _0105_
*429 _0106_
*430 _0107_
*431 _0108_
*432 _0109_
*433 _0110_
*434 _0111_
*435 _0112_
*436 _0113_
*437 _0114_
*438 _0115_
*439 _0116_
*440 _0117_
*441 _0118_
*442 _0119_
*443 _0120_
*444 _0121_
*445 _0122_
*446 _0123_
*447 _0124_
*448 _0125_
*449 _0126_
*450 _0127_
*451 _0128_
*452 _0129_
*453 _0130_
*454 _0131_
*455 _0132_
*456 _0133_
*457 _0134_
*458 _0135_
*459 _0136_
*460 _0137_
*461 _0138_
*462 _0139_
*463 _0140_
*464 _0141_
*465 _0142_
*466 _0143_
*467 _0144_
*468 _0145_
*469 _0146_
*470 _0147_
*471 _0148_
*472 _0149_
*473 _0150_
*474 _0151_
*475 _0152_
*476 _0153_
*477 _0154_
*478 _0155_
*479 _0156_
*480 _0157_
*481 _0158_
*482 _0159_
*483 _0160_
*484 _0161_
*485 _0162_
*486 _0163_
*487 _0164_
*488 _0165_
*489 _0166_
*490 _0167_
*491 _0168_
*492 _0169_
*493 _0170_
*494 _0171_
*495 _0172_
*496 _0173_
*497 _0174_
*498 _0175_
*499 _0176_
*500 _0177_
*501 _0178_
*502 _0179_
*503 _0180_
*504 _0181_
*505 _0182_
*506 _0183_
*507 _0184_
*508 _0185_
*509 _0186_
*510 _0187_
*511 _0188_
*512 _0189_
*513 _0190_
*514 _0191_
*515 _0192_
*516 _0193_
*517 _0194_
*518 _0195_
*519 _0196_
*520 _0197_
*521 _0198_
*522 _0199_
*523 _0200_
*524 _0201_
*525 _0202_
*526 _0203_
*527 _0204_
*528 _0205_
*529 _0206_
*530 _0207_
*531 _0208_
*532 _0209_
*533 _0210_
*534 _0211_
*535 _0212_
*536 _0213_
*537 _0214_
*538 _0215_
*539 _0216_
*540 _0217_
*541 _0218_
*542 _0219_
*543 _0220_
*544 _0221_
*545 _0222_
*546 _0223_
*547 _0224_
*548 _0225_
*549 _0226_
*550 _0227_
*551 _0228_
*552 _0229_
*553 _0230_
*554 _0231_
*555 _0232_
*556 _0233_
*557 _0234_
*558 _0235_
*559 _0236_
*560 _0237_
*561 _0238_
*562 _0239_
*563 _0240_
*564 _0241_
*565 _0242_
*566 _0243_
*567 _0244_
*568 _0245_
*569 _0246_
*570 _0247_
*571 _0248_
*572 _0249_
*573 _0250_
*574 _0251_
*575 _0252_
*576 _0253_
*577 _0254_
*578 _0255_
*579 _0256_
*580 _0257_
*581 _0258_
*582 _0259_
*583 _0260_
*584 _0261_
*585 _0262_
*586 _0263_
*587 _0264_
*588 _0265_
*589 _0266_
*590 _0267_
*591 _0268_
*592 _0269_
*593 _0270_
*594 _0271_
*595 _0272_
*596 _0273_
*597 _0274_
*598 _0275_
*599 _0276_
*600 _0277_
*601 _0278_
*602 _0279_
*603 _0280_
*604 _0281_
*605 _0282_
*606 _0283_
*607 _0284_
*608 _0285_
*609 _0286_
*610 _0287_
*611 _0288_
*612 _0289_
*613 _0290_
*614 _0291_
*615 _0292_
*616 _0293_
*617 _0294_
*618 _0295_
*619 _0296_
*620 _0297_
*621 _0298_
*622 _0299_
*623 _0300_
*624 _0301_
*625 _0302_
*626 _0303_
*627 _0304_
*628 _0305_
*629 _0306_
*630 _0307_
*631 _0308_
*632 _0309_
*633 _0310_
*634 _0311_
*635 _0312_
*636 _0313_
*637 _0314_
*638 _0315_
*639 _0316_
*640 _0317_
*641 _0318_
*642 _0319_
*643 _0320_
*644 _0321_
*645 _0322_
*646 _0323_
*647 _0324_
*648 _0325_
*649 _0326_
*650 _0327_
*651 _0328_
*652 _0329_
*653 _0330_
*654 _0331_
*655 _0332_
*656 _0333_
*657 _0334_
*658 _0335_
*659 _0336_
*660 _0337_
*661 _0338_
*662 _0339_
*663 _0340_
*664 _0341_
*665 _0342_
*666 _0343_
*667 _0344_
*668 _0345_
*669 _0346_
*670 _0347_
*671 _0348_
*672 _0349_
*673 _0350_
*674 _0351_
*675 _0352_
*676 _0353_
*677 _0354_
*678 _0355_
*679 _0356_
*680 _0357_
*681 _0358_
*682 _0359_
*683 _0360_
*684 _0361_
*685 _0362_
*686 _0363_
*687 _0364_
*688 _0365_
*689 _0366_
*690 _0367_
*691 _0368_
*692 _0369_
*693 _0370_
*694 _0371_
*695 _0372_
*696 _0373_
*697 _0374_
*698 _0375_
*699 _0376_
*700 _0377_
*701 _0378_
*702 _0379_
*703 _0380_
*704 _0381_
*705 _0382_
*706 _0383_
*707 _0384_
*708 _0385_
*709 _0386_
*710 _0387_
*711 _0388_
*712 _0389_
*713 _0390_
*714 _0391_
*715 _0392_
*716 _0393_
*717 _0394_
*718 _0395_
*719 _0396_
*720 _0397_
*721 _0398_
*722 _0399_
*723 _0400_
*724 _0401_
*725 _0402_
*726 _0403_
*727 _0404_
*728 _0405_
*729 _0406_
*730 _0407_
*731 _0408_
*732 _0409_
*733 _0410_
*734 _0411_
*735 _0412_
*736 _0413_
*737 _0414_
*738 _0415_
*739 _0416_
*740 _0417_
*741 _0418_
*742 _0419_
*743 _0420_
*744 _0421_
*745 _0422_
*746 _0423_
*747 _0424_
*748 _0425_
*749 _0426_
*750 _0427_
*751 _0428_
*752 _0429_
*753 _0430_
*754 _0431_
*755 _0432_
*756 _0433_
*757 _0434_
*758 _0435_
*759 _0436_
*760 _0437_
*761 _0438_
*762 _0439_
*763 _0440_
*764 _0441_
*765 _0442_
*766 _0443_
*767 _0444_
*768 _0445_
*769 _0446_
*770 _0447_
*771 _0448_
*772 _0449_
*773 _0450_
*774 _0451_
*775 _0452_
*776 _0453_
*777 _0454_
*778 _0455_
*779 _0456_
*780 _0457_
*781 _0458_
*782 _0459_
*783 _0460_
*784 _0461_
*785 _0462_
*786 _0463_
*787 _0464_
*788 _0465_
*789 _0466_
*790 _0467_
*791 _0468_
*792 _0469_
*793 _0470_
*794 _0471_
*795 _0472_
*796 _0473_
*797 _0474_
*798 _0475_
*799 _0476_
*800 _0477_
*801 _0478_
*802 _0479_
*803 _0480_
*804 _0481_
*805 _0482_
*806 _0483_
*807 _0484_
*808 _0485_
*809 _0486_
*810 _0487_
*811 _0488_
*812 _0489_
*813 _0490_
*814 _0491_
*815 _0492_
*816 _0493_
*817 _0494_
*818 _0495_
*819 _0496_
*820 _0497_
*821 _0498_
*822 _0499_
*823 _0500_
*824 _0501_
*825 _0502_
*826 _0503_
*827 _0504_
*828 _0505_
*829 _0506_
*830 _0507_
*831 _0508_
*832 _0509_
*833 _0510_
*834 _0511_
*835 _0512_
*836 _0513_
*837 _0514_
*838 _0515_
*839 _0516_
*840 _0517_
*841 _0518_
*842 _0519_
*843 _0520_
*844 _0521_
*845 _0522_
*846 _0523_
*847 _0524_
*848 _0525_
*849 _0526_
*850 _0527_
*851 _0528_
*852 _0529_
*853 _0530_
*854 _0531_
*855 _0532_
*856 _0533_
*857 _0534_
*858 _0535_
*859 _0536_
*860 _0537_
*861 _0538_
*862 _0539_
*863 _0540_
*864 _0541_
*865 _0542_
*866 _0543_
*867 _0544_
*868 _0545_
*869 _0546_
*870 _0547_
*871 _0548_
*872 _0549_
*873 _0550_
*874 _0551_
*875 _0552_
*876 _0553_
*877 _0554_
*878 _0555_
*879 _0556_
*880 _0557_
*881 _0558_
*882 _0559_
*883 _0560_
*884 _0561_
*885 _0562_
*886 _0563_
*887 _0564_
*888 _0565_
*889 _0566_
*890 _0567_
*891 _0568_
*892 _0569_
*893 _0570_
*894 _0571_
*895 _0572_
*896 _0573_
*897 _0574_
*898 _0575_
*899 _0576_
*900 _0577_
*901 _0578_
*902 _0579_
*903 _0580_
*904 _0581_
*905 _0582_
*906 _0583_
*907 _0584_
*908 _0585_
*909 _0586_
*910 _0587_
*911 _0588_
*912 _0589_
*913 _0590_
*914 _0591_
*915 _0592_
*916 _0593_
*917 _0594_
*918 _0595_
*919 _0596_
*920 _0597_
*921 _0598_
*922 _0599_
*923 _0600_
*924 _0601_
*925 _0602_
*926 _0603_
*927 _0604_
*928 _0605_
*929 _0606_
*930 _0607_
*931 _0608_
*932 _0609_
*933 _0610_
*934 _0611_
*935 _0612_
*936 _0613_
*937 _0614_
*938 _0615_
*939 _0616_
*940 _0617_
*941 _0618_
*942 _0619_
*943 _0620_
*944 _0621_
*945 _0622_
*946 _0623_
*947 _0624_
*948 _0625_
*949 _0626_
*950 _0627_
*951 _0628_
*952 _0629_
*953 _0630_
*954 _0631_
*955 _0632_
*956 _0633_
*957 _0634_
*958 _0635_
*959 _0636_
*960 _0637_
*961 _0638_
*962 _0639_
*963 _0640_
*964 _0641_
*965 _0642_
*966 _0643_
*967 _0644_
*968 _0645_
*969 _0646_
*970 _0647_
*971 _0648_
*972 _0649_
*973 _0650_
*974 _0651_
*975 _0652_
*976 _0653_
*977 _0654_
*978 _0655_
*979 _0656_
*980 _0657_
*981 _0658_
*982 _0659_
*983 _0660_
*984 _0661_
*985 _0662_
*986 _0663_
*987 _0664_
*988 _0665_
*989 _0666_
*990 _0667_
*991 _0668_
*992 _0669_
*993 _0670_
*994 _0671_
*995 _0672_
*996 _0673_
*997 _0674_
*998 _0675_
*999 _0676_
*1000 _0677_
*1001 _0678_
*1002 _0679_
*1003 _0680_
*1004 _0681_
*1005 _0682_
*1006 _0683_
*1007 _0684_
*1008 _0685_
*1009 _0686_
*1010 _0687_
*1011 _0688_
*1012 _0689_
*1013 _0690_
*1014 _0691_
*1015 _0692_
*1016 _0693_
*1017 _0694_
*1018 _0695_
*1019 _0696_
*1020 _0697_
*1021 _0698_
*1022 _0699_
*1023 _0700_
*1024 _0701_
*1025 _0702_
*1026 _0703_
*1027 _0704_
*1028 _0705_
*1029 _0706_
*1030 _0707_
*1031 _0708_
*1032 _0709_
*1033 _0710_
*1034 _0711_
*1035 _0712_
*1036 _0713_
*1037 _0714_
*1038 _0715_
*1039 _0716_
*1040 _0717_
*1041 _0718_
*1042 _0719_
*1043 _0720_
*1044 _0721_
*1045 _0722_
*1046 _0723_
*1047 _0724_
*1048 _0725_
*1049 _0726_
*1050 _0727_
*1051 _0728_
*1052 _0729_
*1053 _0730_
*1054 _0731_
*1055 _0732_
*1056 _0733_
*1057 _0734_
*1058 _0735_
*1059 _0736_
*1060 _0737_
*1061 _0738_
*1062 _0739_
*1063 _0740_
*1064 _0741_
*1065 _0742_
*1066 _0743_
*1067 _0744_
*1068 _0745_
*1069 _0746_
*1070 _0747_
*1071 _0748_
*1072 _0749_
*1073 _0750_
*1074 _0751_
*1075 _0752_
*1076 _0753_
*1077 _0754_
*1078 _0755_
*1079 _0756_
*1080 _0757_
*1081 _0758_
*1082 _0759_
*1083 _0760_
*1084 _0761_
*1085 _0762_
*1086 _0763_
*1087 _0764_
*1088 _0765_
*1089 _0766_
*1090 _0767_
*1091 _0768_
*1092 _0769_
*1093 _0770_
*1094 _0771_
*1095 _0772_
*1096 _0773_
*1097 _0774_
*1098 _0775_
*1099 _0776_
*1100 _0777_
*1101 _0778_
*1102 _0779_
*1103 _0780_
*1104 _0781_
*1105 _0782_
*1106 _0783_
*1107 _0784_
*1108 _0785_
*1109 _0786_
*1110 _0787_
*1111 _0788_
*1112 _0789_
*1113 _0790_
*1114 _0791_
*1115 _0792_
*1116 _0793_
*1117 _0794_
*1118 _0795_
*1119 _0796_
*1120 _0797_
*1121 _0798_
*1122 _0799_
*1123 _0800_
*1124 _0801_
*1125 _0802_
*1126 _0803_
*1127 _0804_
*1128 _0805_
*1129 _0806_
*1130 _0807_
*1131 _0808_
*1132 _0809_
*1133 _0810_
*1134 _0811_
*1135 _0812_
*1136 _0813_
*1137 _0814_
*1138 _0815_
*1139 _0816_
*1140 _0817_
*1141 _0818_
*1142 _0819_
*1143 _0820_
*1144 _0821_
*1145 _0822_
*1146 _0823_
*1147 _0824_
*1148 _0825_
*1149 _0826_
*1150 _0827_
*1151 _0828_
*1152 _0829_
*1153 _0830_
*1154 _0831_
*1155 _0832_
*1156 _0833_
*1157 _0834_
*1158 _0835_
*1159 _0836_
*1160 _0837_
*1161 _0838_
*1162 _0839_
*1163 _0840_
*1164 _0841_
*1165 _0842_
*1166 _0843_
*1167 _0844_
*1168 _0845_
*1169 _0846_
*1170 _0847_
*1171 _0848_
*1172 _0849_
*1173 _0850_
*1174 _0851_
*1175 _0852_
*1176 _0853_
*1177 _0854_
*1178 _0855_
*1179 _0856_
*1180 _0857_
*1181 _0858_
*1182 _0859_
*1183 _0860_
*1184 _0861_
*1185 _0862_
*1186 _0863_
*1187 _0864_
*1188 _0865_
*1189 _0866_
*1190 _0867_
*1191 _0868_
*1192 _0869_
*1193 _0870_
*1194 _0871_
*1195 _0872_
*1196 _0873_
*1197 _0874_
*1198 _0875_
*1199 _0876_
*1200 _0877_
*1201 _0878_
*1202 _0879_
*1203 _0880_
*1204 _0881_
*1205 _0882_
*1206 _0883_
*1207 _0884_
*1208 _0885_
*1209 _0886_
*1210 _0887_
*1211 _0888_
*1212 _0889_
*1213 _0890_
*1214 _0891_
*1215 _0892_
*1216 _0893_
*1217 _0894_
*1218 _0895_
*1219 _0896_
*1220 _0897_
*1221 _0898_
*1222 _0899_
*1223 _0900_
*1224 _0901_
*1225 _0902_
*1226 _0903_
*1227 _0904_
*1228 _0905_
*1229 _0906_
*1230 _0907_
*1231 _0908_
*1232 _0909_
*1233 _0910_
*1234 _0911_
*1235 _0912_
*1236 _0913_
*1237 _0914_
*1238 _0915_
*1239 _0916_
*1240 _0917_
*1241 _0918_
*1242 _0919_
*1243 _0920_
*1244 _0921_
*1245 _0922_
*1246 _0923_
*1247 _0924_
*1248 _0925_
*1249 _0926_
*1250 _0927_
*1251 _0928_
*1252 _0929_
*1253 _0930_
*1254 _0931_
*1255 _0932_
*1256 _0933_
*1257 _0934_
*1258 _0935_
*1259 _0936_
*1260 _0937_
*1261 _0938_
*1262 _0939_
*1263 _0940_
*1264 _0941_
*1265 _0942_
*1266 _0943_
*1267 _0944_
*1268 _0945_
*1269 _0946_
*1270 _0947_
*1271 _0948_
*1272 _0949_
*1273 _0950_
*1274 _0951_
*1275 _0952_
*1276 _0953_
*1277 _0954_
*1278 _0955_
*1279 _0956_
*1280 _0957_
*1281 _0958_
*1282 _0959_
*1283 _0960_
*1284 _0961_
*1285 _0962_
*1286 _0963_
*1287 _0964_
*1288 _0965_
*1289 _0966_
*1290 _0967_
*1291 _0968_
*1292 _0969_
*1293 _0970_
*1294 _0971_
*1295 _0972_
*1296 _0973_
*1297 _0974_
*1298 _0975_
*1299 _0976_
*1300 _0977_
*1301 _0978_
*1302 _0979_
*1303 _0980_
*1304 _0981_
*1305 _0982_
*1306 _0983_
*1307 _0984_
*1308 _0985_
*1309 _0986_
*1310 _0987_
*1311 _0988_
*1312 _0989_
*1313 _0990_
*1314 _0991_
*1315 _0992_
*1316 _0993_
*1317 _0994_
*1318 _0995_
*1319 _0996_
*1320 _0997_
*1321 _0998_
*1322 _0999_
*1323 _1000_
*1324 _1001_
*1325 _1002_
*1326 _1003_
*1327 _1004_
*1328 _1005_
*1329 _1006_
*1330 _1007_
*1331 _1008_
*1332 _1009_
*1333 _1010_
*1334 _1011_
*1335 _1012_
*1336 _1013_
*1337 _1014_
*1338 _1015_
*1339 _1016_
*1340 _1017_
*1341 _1018_
*1342 _1019_
*1343 _1020_
*1344 _1021_
*1345 _1022_
*1346 _1023_
*1347 _1024_
*1348 _1025_
*1349 _1026_
*1350 _1027_
*1351 _1028_
*1352 _1029_
*1353 _1030_
*1354 _1031_
*1355 _1032_
*1356 _1033_
*1357 _1034_
*1358 _1035_
*1359 _1036_
*1360 _1037_
*1361 _1038_
*1362 _1039_
*1363 _1040_
*1364 _1041_
*1365 _1042_
*1366 _1043_
*1367 _1044_
*1368 _1045_
*1369 _1046_
*1370 _1047_
*1371 _1048_
*1372 _1049_
*1373 _1050_
*1374 _1051_
*1375 _1052_
*1376 _1053_
*1377 _1054_
*1378 _1055_
*1379 _1056_
*1380 _1057_
*1381 _1058_
*1382 _1059_
*1383 _1060_
*1384 _1061_
*1385 _1062_
*1386 _1063_
*1387 _1064_
*1388 _1065_
*1389 _1066_
*1390 _1067_
*1391 _1068_
*1392 _1069_
*1393 _1070_
*1394 _1071_
*1395 _1072_
*1396 _1073_
*1397 _1074_
*1398 _1075_
*1399 clknet_0_wb_clk_i
*1400 clknet_2_0_0_wb_clk_i
*1401 clknet_2_1_0_wb_clk_i
*1402 clknet_2_2_0_wb_clk_i
*1403 clknet_2_3_0_wb_clk_i
*1404 clknet_3_0_0_wb_clk_i
*1405 clknet_3_1_0_wb_clk_i
*1406 clknet_3_2_0_wb_clk_i
*1407 clknet_3_3_0_wb_clk_i
*1408 clknet_3_4_0_wb_clk_i
*1409 clknet_3_5_0_wb_clk_i
*1410 clknet_3_6_0_wb_clk_i
*1411 clknet_3_7_0_wb_clk_i
*1412 net1
*1413 net10
*1414 net100
*1415 net101
*1416 net102
*1417 net103
*1418 net104
*1419 net11
*1420 net12
*1421 net13
*1422 net14
*1423 net15
*1424 net16
*1425 net17
*1426 net18
*1427 net19
*1428 net2
*1429 net20
*1430 net21
*1431 net22
*1432 net23
*1433 net24
*1434 net25
*1435 net26
*1436 net27
*1437 net28
*1438 net29
*1439 net3
*1440 net30
*1441 net31
*1442 net32
*1443 net33
*1444 net34
*1445 net35
*1446 net36
*1447 net37
*1448 net38
*1449 net39
*1450 net4
*1451 net40
*1452 net41
*1453 net42
*1454 net43
*1455 net44
*1456 net45
*1457 net46
*1458 net47
*1459 net48
*1460 net49
*1461 net5
*1462 net50
*1463 net51
*1464 net52
*1465 net53
*1466 net54
*1467 net55
*1468 net56
*1469 net57
*1470 net58
*1471 net59
*1472 net6
*1473 net60
*1474 net61
*1475 net62
*1476 net63
*1477 net64
*1478 net65
*1479 net66
*1480 net67
*1481 net68
*1482 net69
*1483 net7
*1484 net70
*1485 net71
*1486 net72
*1487 net73
*1488 net74
*1489 net75
*1490 net76
*1491 net77
*1492 net78
*1493 net79
*1494 net8
*1495 net80
*1496 net81
*1497 net82
*1498 net83
*1499 net84
*1500 net85
*1501 net86
*1502 net87
*1503 net88
*1504 net89
*1505 net9
*1506 net90
*1507 net91
*1508 net92
*1509 net93
*1510 net94
*1511 net95
*1512 net96
*1513 net97
*1514 net98
*1515 net99
*1516 ANTENNA_0
*1517 ANTENNA_1
*1518 FILLER_0_107
*1519 FILLER_0_11
*1520 FILLER_0_111
*1521 FILLER_0_113
*1522 FILLER_0_125
*1523 FILLER_0_137
*1524 FILLER_0_141
*1525 FILLER_0_15
*1526 FILLER_0_153
*1527 FILLER_0_165
*1528 FILLER_0_169
*1529 FILLER_0_181
*1530 FILLER_0_193
*1531 FILLER_0_197
*1532 FILLER_0_209
*1533 FILLER_0_221
*1534 FILLER_0_225
*1535 FILLER_0_237
*1536 FILLER_0_249
*1537 FILLER_0_253
*1538 FILLER_0_265
*1539 FILLER_0_27
*1540 FILLER_0_277
*1541 FILLER_0_281
*1542 FILLER_0_29
*1543 FILLER_0_293
*1544 FILLER_0_3
*1545 FILLER_0_305
*1546 FILLER_0_309
*1547 FILLER_0_321
*1548 FILLER_0_325
*1549 FILLER_0_329
*1550 FILLER_0_335
*1551 FILLER_0_337
*1552 FILLER_0_349
*1553 FILLER_0_361
*1554 FILLER_0_365
*1555 FILLER_0_377
*1556 FILLER_0_389
*1557 FILLER_0_393
*1558 FILLER_0_405
*1559 FILLER_0_41
*1560 FILLER_0_417
*1561 FILLER_0_421
*1562 FILLER_0_433
*1563 FILLER_0_445
*1564 FILLER_0_449
*1565 FILLER_0_461
*1566 FILLER_0_473
*1567 FILLER_0_477
*1568 FILLER_0_489
*1569 FILLER_0_501
*1570 FILLER_0_505
*1571 FILLER_0_517
*1572 FILLER_0_529
*1573 FILLER_0_53
*1574 FILLER_0_533
*1575 FILLER_0_545
*1576 FILLER_0_557
*1577 FILLER_0_561
*1578 FILLER_0_57
*1579 FILLER_0_573
*1580 FILLER_0_578
*1581 FILLER_0_586
*1582 FILLER_0_589
*1583 FILLER_0_612
*1584 FILLER_0_620
*1585 FILLER_0_624
*1586 FILLER_0_80
*1587 FILLER_0_88
*1588 FILLER_0_95
*1589 FILLER_100_109
*1590 FILLER_100_121
*1591 FILLER_100_129
*1592 FILLER_100_13
*1593 FILLER_100_135
*1594 FILLER_100_139
*1595 FILLER_100_141
*1596 FILLER_100_153
*1597 FILLER_100_159
*1598 FILLER_100_163
*1599 FILLER_100_175
*1600 FILLER_100_180
*1601 FILLER_100_187
*1602 FILLER_100_195
*1603 FILLER_100_197
*1604 FILLER_100_20
*1605 FILLER_100_209
*1606 FILLER_100_221
*1607 FILLER_100_229
*1608 FILLER_100_234
*1609 FILLER_100_246
*1610 FILLER_100_253
*1611 FILLER_100_265
*1612 FILLER_100_277
*1613 FILLER_100_281
*1614 FILLER_100_285
*1615 FILLER_100_292
*1616 FILLER_100_299
*1617 FILLER_100_3
*1618 FILLER_100_307
*1619 FILLER_100_309
*1620 FILLER_100_313
*1621 FILLER_100_317
*1622 FILLER_100_324
*1623 FILLER_100_349
*1624 FILLER_100_361
*1625 FILLER_100_365
*1626 FILLER_100_373
*1627 FILLER_100_396
*1628 FILLER_100_408
*1629 FILLER_100_424
*1630 FILLER_100_436
*1631 FILLER_100_444
*1632 FILLER_100_448
*1633 FILLER_100_455
*1634 FILLER_100_467
*1635 FILLER_100_475
*1636 FILLER_100_477
*1637 FILLER_100_489
*1638 FILLER_100_494
*1639 FILLER_100_50
*1640 FILLER_100_506
*1641 FILLER_100_518
*1642 FILLER_100_530
*1643 FILLER_100_536
*1644 FILLER_100_548
*1645 FILLER_100_560
*1646 FILLER_100_572
*1647 FILLER_100_584
*1648 FILLER_100_589
*1649 FILLER_100_59
*1650 FILLER_100_596
*1651 FILLER_100_621
*1652 FILLER_100_67
*1653 FILLER_100_72
*1654 FILLER_100_85
*1655 FILLER_100_9
*1656 FILLER_100_97
*1657 FILLER_101_104
*1658 FILLER_101_113
*1659 FILLER_101_125
*1660 FILLER_101_13
*1661 FILLER_101_137
*1662 FILLER_101_141
*1663 FILLER_101_153
*1664 FILLER_101_165
*1665 FILLER_101_169
*1666 FILLER_101_184
*1667 FILLER_101_197
*1668 FILLER_101_20
*1669 FILLER_101_209
*1670 FILLER_101_221
*1671 FILLER_101_225
*1672 FILLER_101_237
*1673 FILLER_101_249
*1674 FILLER_101_253
*1675 FILLER_101_265
*1676 FILLER_101_277
*1677 FILLER_101_281
*1678 FILLER_101_29
*1679 FILLER_101_293
*1680 FILLER_101_305
*1681 FILLER_101_309
*1682 FILLER_101_321
*1683 FILLER_101_327
*1684 FILLER_101_33
*1685 FILLER_101_331
*1686 FILLER_101_335
*1687 FILLER_101_340
*1688 FILLER_101_352
*1689 FILLER_101_356
*1690 FILLER_101_365
*1691 FILLER_101_373
*1692 FILLER_101_379
*1693 FILLER_101_391
*1694 FILLER_101_393
*1695 FILLER_101_405
*1696 FILLER_101_417
*1697 FILLER_101_421
*1698 FILLER_101_433
*1699 FILLER_101_445
*1700 FILLER_101_449
*1701 FILLER_101_45
*1702 FILLER_101_461
*1703 FILLER_101_473
*1704 FILLER_101_477
*1705 FILLER_101_489
*1706 FILLER_101_501
*1707 FILLER_101_505
*1708 FILLER_101_517
*1709 FILLER_101_529
*1710 FILLER_101_53
*1711 FILLER_101_533
*1712 FILLER_101_545
*1713 FILLER_101_557
*1714 FILLER_101_561
*1715 FILLER_101_57
*1716 FILLER_101_573
*1717 FILLER_101_585
*1718 FILLER_101_589
*1719 FILLER_101_598
*1720 FILLER_101_605
*1721 FILLER_101_612
*1722 FILLER_101_620
*1723 FILLER_101_624
*1724 FILLER_101_69
*1725 FILLER_101_81
*1726 FILLER_101_85
*1727 FILLER_101_97
*1728 FILLER_10_109
*1729 FILLER_10_121
*1730 FILLER_10_13
*1731 FILLER_10_133
*1732 FILLER_10_139
*1733 FILLER_10_141
*1734 FILLER_10_153
*1735 FILLER_10_165
*1736 FILLER_10_177
*1737 FILLER_10_189
*1738 FILLER_10_195
*1739 FILLER_10_197
*1740 FILLER_10_20
*1741 FILLER_10_209
*1742 FILLER_10_221
*1743 FILLER_10_233
*1744 FILLER_10_245
*1745 FILLER_10_251
*1746 FILLER_10_253
*1747 FILLER_10_265
*1748 FILLER_10_277
*1749 FILLER_10_289
*1750 FILLER_10_29
*1751 FILLER_10_301
*1752 FILLER_10_307
*1753 FILLER_10_309
*1754 FILLER_10_321
*1755 FILLER_10_333
*1756 FILLER_10_345
*1757 FILLER_10_357
*1758 FILLER_10_363
*1759 FILLER_10_365
*1760 FILLER_10_377
*1761 FILLER_10_389
*1762 FILLER_10_401
*1763 FILLER_10_41
*1764 FILLER_10_413
*1765 FILLER_10_419
*1766 FILLER_10_421
*1767 FILLER_10_433
*1768 FILLER_10_445
*1769 FILLER_10_457
*1770 FILLER_10_469
*1771 FILLER_10_475
*1772 FILLER_10_477
*1773 FILLER_10_489
*1774 FILLER_10_501
*1775 FILLER_10_513
*1776 FILLER_10_525
*1777 FILLER_10_53
*1778 FILLER_10_531
*1779 FILLER_10_533
*1780 FILLER_10_545
*1781 FILLER_10_557
*1782 FILLER_10_569
*1783 FILLER_10_581
*1784 FILLER_10_587
*1785 FILLER_10_589
*1786 FILLER_10_6
*1787 FILLER_10_601
*1788 FILLER_10_613
*1789 FILLER_10_65
*1790 FILLER_10_77
*1791 FILLER_10_83
*1792 FILLER_10_85
*1793 FILLER_10_97